data/case_ACTIVSg2000.m
function mpc = case_ACTIVSg2000
%CASE_ACTIVSG2000  Synthetic Texas 2000-bus power system model.
%
%   This is an entirely synthetic 2000 bus case, geographically situated
%   in the US state of Texas. The case is designed with a 500, 230, 161
%   and 115 kV transmission network to serve a load that roughly mimics
%   the actual population of its geographic footprint. The synthetic
%   transmission system was designed by algorithms described in [1] to be
%   statistically similar to actual transmission system models but without
%   modeling any actual lines.
%
%   When publishing results based on this data, please cite:
%
%   [1] A.B. Birchfield, T. Xu, K.M. Gegner, K.S. Shetye, T.J. Overbye,
%       "Grid Structural Characteristics as Validation Criteria for
%       Synthetic Networks," IEEE Transactions on Power Systems, 2017.
%
%   This is a synthetic power system model that does not represent the
%   actual grid. It was developed as part of the US ARPA-E GRID DATA
%   research project and contains no CEII.
%
%   One-line diagrams and other data formats available at:
%       https://electricgrids.engr.tamu.edu
%
%   Oct 17, 2017

%   Created from ACTIVSg2000.pwb, saved by
%   PowerWorld Simulator, version 20, build date September 14, 2017,
%   then by MATPOWER 6.

%   MATPOWER
%   Copyright (c) 2017 by A.B. Birchfield, T. Xu, K.M. Gegner, K.S. Shetye,
%   and T.J. Overbye
%   Licensed under the Creative Commons Attribution 4.0 International license,
%   http://creativecommons.org/licenses/by/4.0/

%% MATPOWER Case Format : Version 2
mpc.version = '2';

%%-----  Power Flow Data  -----%%
%% system MVA base
mpc.baseMVA = 100;

%% bus data
%	bus_i	type	Pd	Qd	Gs	Bs	area	Vm	Va	baseKV	zone	Vmax	Vmin	lam_P	lam_Q	mu_Vmax	mu_Vmin
mpc.bus = [
	1001	1	20.78	5.89	0	0	1	0.9845967	-41.685405	115	9	1.1	0.9	19.0200	0.0000	0.0000	0.0000;
	1002	1	15.41	4.37	0	0	1	1.0393022	-37.014538	115	9	1.1	0.9	19.0200	0.0000	0.0000	0.0000;
	1003	1	0	0	0	0	1	1.0114076	-36.82824	115	9	1.1	0.9	19.0200	0.0000	0.0000	0.0000;
	1004	2	0	0	0	0	1	1.0147607	-38.704638	230	9	1.1	0.9	19.0200	0.0000	0.0000	0.0000;
	1005	1	0	0	0	0	1	1.0114061	-35.129527	115	9	1.1	0.9	19.0200	0.0000	0.0000	0.0000;
	1006	2	0	0	0	0	1	1.005006	-32.979667	13.8	9	1.1	0.9	19.0200	0.0000	0.0000	0.0000;
	1007	1	7.01	1.99	0	0	1	1.0432233	-37.320462	115	9	1.1	0.9	19.0200	0.0000	0.0000	0.0000;
	1008	1	0	0	0	0	1	1.0371216	-26.882031	115	9	1.1	0.9	19.0200	0.0000	0.0000	0.0000;
	1009	2	0	0	0	0	1	1.0273106	-23.699937	13.8	9	1.1	0.9	19.0200	0.0000	0.0000	0.0000;
	1010	1	0	0	0	0	1	1.0469529	-35.805881	115	9	1.1	0.9	19.0200	0.0000	0.0000	0.0000;
	1011	2	0	0	0	0	1	1.0472111	-34.533531	22	9	1.1	0.9	19.0200	0.0000	0.0000	0.0000;
	1012	1	2.99	0.85	0	9.5	1	1.0539814	-41.738156	115	9	1.1	0.9	19.0200	0.0000	0.0000	0.0000;
	1013	1	29.23	8.28	0	0	1	1.0152491	-34.17231	115	9	1.1	0.9	19.0200	0.0000	0.0000	0.0000;
	1014	1	2.22	0.63	0	0	1	1.0237297	-30.542956	115	9	1.1	0.9	19.0200	0.0000	0.0000	0.0000;
	1015	1	7.51	2.13	0	0	1	1.0475018	-37.12724	115	9	1.1	0.9	19.0200	0.0000	0.0000	0.0000;
	1016	1	2.89	0.82	0	30	1	1.0194143	-34.290665	115	9	1.1	0.9	19.0200	0.0000	0.0000	0.0000;
	1017	1	18.34	5.2	0	0	1	0.9878647	-40.298202	115	9	1.1	0.9	19.0200	0.0000	0.0000	0.0000;
	1018	1	0.07	0.02	0	0	1	0.9949934	-39.026625	115	9	1.1	0.9	19.0200	0.0000	0.0000	0.0000;
	1019	1	61.78	17.5	0	142.98	1	1.0047606	-41.261395	115	9	1.1	0.9	19.0200	0.0000	0.0000	0.0000;
	1020	1	0	0	0	76.73	1	1.0271704	-34.202314	115	9	1.1	0.9	19.0200	0.0000	0.0000	0.0000;
	1021	2	0	0	0	0	1	1.0029299	-27.634753	13.8	9	1.1	0.9	19.0200	0.0000	0.0000	0.0000;
	1022	1	0	0	0	0	1	1.0141074	-35.971329	115	9	1.1	0.9	19.0200	0.0000	0.0000	0.0000;
	1023	2	0	0	0	0	1	1.01	-27.077524	13.8	9	1.1	0.9	19.0200	0.0000	0.0000	0.0000;
	1024	1	63.04	17.86	0	0	1	0.9963725	-37.983525	115	9	1.1	0.9	19.0200	0.0000	0.0000	0.0000;
	1025	1	0	0	0	0	1	1.0222462	-33.171237	115	9	1.1	0.9	19.0200	0.0000	0.0000	0.0000;
	1026	2	0	0	0	0	1	1	-23.690385	13.8	9	1.1	0.9	19.0200	0.0000	0.0000	0.0000;
	1027	1	101.21	28.68	0	75	1	1.0174852	-44.805795	115	9	1.1	0.9	19.0200	0.0000	0.0000	0.0000;
	1028	1	10.01	2.84	0	0	1	1.0168138	-37.538628	115	9	1.1	0.9	19.0200	0.0000	0.0000	0.0000;
	1029	1	83.18	23.57	0	40	1	1.0138684	-43.817396	115	9	1.1	0.9	19.0200	0.0000	0.0000	0.0000;
	1030	1	24.63	6.98	0	0	1	1.0316518	-32.047552	115	9	1.1	0.9	19.0200	0.0000	0.0000	0.0000;
	1031	1	9.25	2.62	0	0	1	1.0286909	-36.45425	115	9	1.1	0.9	19.0200	0.0000	0.0000	0.0000;
	1032	1	0	0	0	0	1	1.0184773	-30.560805	115	9	1.1	0.9	19.0200	0.0000	0.0000	0.0000;
	1033	2	0	0	0	20	1	1.0402415	-34.951727	230	9	1.1	0.9	19.0200	0.0000	0.0000	0.0000;
	1034	1	0	0	0	0	1	1.0071445	-33.264079	115	9	1.1	0.9	19.0200	0.0000	0.0000	0.0000;
	1035	2	0	0	0	0	1	1	-29.975016	13.8	9	1.1	0.9	19.0200	0.0000	0.0000	0.0000;
	1036	1	13.6	3.85	0	0	1	1.0066074	-30.858052	115	9	1.1	0.9	19.0200	0.0000	0.0000	0.0000;
	1037	1	102.24	28.97	0	0	1	0.980104	-41.442414	115	9	1.1	0.9	19.0200	0.0000	0.0000	0.0000;
	1038	1	0	0	0	0	1	1.0318373	-26.127993	115	9	1.1	0.9	19.0200	0.0000	0.0000	0.0000;
	1039	2	0	0	0	0	1	1.0116746	-20.880868	22	9	1.1	0.9	19.0200	0.0000	0.0000	0.0000;
	1040	1	44.36	12.57	0	0	1	0.9960449	-39.304115	115	9	1.1	0.9	19.0200	0.0000	0.0000	0.0000;
	1041	1	0	0	0	0	1	1.0060852	-34.134633	115	9	1.1	0.9	19.0200	0.0000	0.0000	0.0000;
	1042	2	0	0	0	0	1	1.0060852	-34.134633	13.8	9	1.1	0.9	19.0200	0.0000	0.0000	0.0000;
	1043	2	0	0	0	0	1	1	-30.899472	13.8	9	1.1	0.9	19.0200	0.0000	0.0000	0.0000;
	1044	1	14.68	4.16	0	0	1	1.017532	-44.01763	115	9	1.1	0.9	19.0200	0.0000	0.0000	0.0000;
	1045	1	98.56	27.93	0	0	1	0.9839338	-43.386148	115	9	1.1	0.9	19.0200	0.0000	0.0000	0.0000;
	1046	1	11.08	3.14	0	12	1	1.0487347	-39.987244	115	9	1.1	0.9	19.0200	0.0000	0.0000	0.0000;
	1047	1	0	0	0	0	1	1.0136215	-32.094839	115	9	1.1	0.9	19.0200	0.0000	0.0000	0.0000;
	1048	2	0	0	0	0	1	1.0136215	-32.094839	18	9	1.1	0.9	19.0200	0.0000	0.0000	0.0000;
	1049	2	0	0	0	0	1	1.0136215	-32.094839	18	9	1.1	0.9	19.0200	0.0000	0.0000	0.0000;
	1050	2	0	0	0	0	1	1.002667	-27.060629	18	9	1.1	0.9	19.0200	0.0000	0.0000	0.0000;
	1051	2	0	0	0	0	1	1	-25.567436	18	9	1.1	0.9	19.0200	0.0000	0.0000	0.0000;
	1052	2	0	0	0	0	1	1.0060587	-27.921667	18	9	1.1	0.9	19.0200	0.0000	0.0000	0.0000;
	1053	2	0	0	0	0	1	1.0395805	-35.915792	230	9	1.1	0.9	19.0200	0.0000	0.0000	0.0000;
	1054	1	14.99	4.25	0	0	1	1.0164431	-41.531654	115	9	1.1	0.9	19.0200	0.0000	0.0000	0.0000;
	1055	1	3.98	1.13	0	0	1	1.0047781	-37.821576	115	9	1.1	0.9	19.0200	0.0000	0.0000	0.0000;
	1056	1	0	0	0	80	1	1.0347082	-40.945605	115	9	1.1	0.9	19.0200	0.0000	0.0000	0.0000;
	1057	2	0	0	0	0	1	1.0347082	-40.945605	18	9	1.1	0.9	19.0200	0.0000	0.0000	0.0000;
	1058	1	13.46	3.81	0	0	1	1.043776	-29.337072	115	9	1.1	0.9	19.0200	0.0000	0.0000	0.0000;
	1059	2	0	0	0	0	1	1.043776	-29.337072	22	9	1.1	0.9	19.0200	0.0000	0.0000	0.0000;
	1060	2	0	0	0	0	1	1.043776	-29.337072	22	9	1.1	0.9	19.0200	0.0000	0.0000	0.0000;
	1061	1	0	0	0	0	1	1.0134072	-36.301689	115	9	1.1	0.9	19.0200	0.0000	0.0000	0.0000;
	1062	2	0	0	0	0	1	1.0134072	-36.301689	13.8	9	1.1	0.9	19.0200	0.0000	0.0000	0.0000;
	1063	2	0	0	0	0	1	1.0134072	-36.301689	13.8	9	1.1	0.9	19.0200	0.0000	0.0000	0.0000;
	1064	1	123.76	35.07	0	0	1	0.9776691	-43.090638	115	9	1.1	0.9	19.0200	0.0000	0.0000	0.0000;
	1065	1	0	0	0	0	1	1.009275	-33.987727	115	9	1.1	0.9	19.0200	0.0000	0.0000	0.0000;
	1066	2	0	0	0	0	1	1	-26.480316	13.8	9	1.1	0.9	19.0200	0.0000	0.0000	0.0000;
	1067	1	101.55	28.77	0	0	1	1.0029489	-34.689594	115	9	1.1	0.9	19.0200	0.0000	0.0000	0.0000;
	1068	1	59.4	16.83	0	0	1	0.9877451	-35.040608	115	9	1.1	0.9	19.0200	0.0000	0.0000	0.0000;
	1069	1	0	0	0	0	1	1.0402904	-26.964152	115	9	1.1	0.9	19.0200	0.0000	0.0000	0.0000;
	1070	2	0	0	0	0	1	1.04	-22.495895	13.8	9	1.1	0.9	19.0200	0.0000	0.0000	0.0000;
	1071	1	91.46	25.91	0	0	1	0.9918018	-40.435232	115	9	1.1	0.9	19.0200	0.0000	0.0000	0.0000;
	1072	2	0	0	0	0	1	1.01	-31.07293	18	9	1.1	0.9	19.0200	0.0000	0.0000	0.0000;
	1073	2	0	0	0	0	1	1.01	-24.66579	18	9	1.1	0.9	19.0200	0.0000	0.0000	0.0000;
	1074	2	0	0	0	0	1	1.01	-26.714301	18	9	1.1	0.9	19.0200	0.0000	0.0000	0.0000;
	1075	2	0	0	0	0	1	1.01	-29.478604	18	9	1.1	0.9	19.0200	0.0000	0.0000	0.0000;
	1076	2	0	0	0	0	1	0.9918018	-40.435232	18	9	1.1	0.9	19.0200	0.0000	0.0000	0.0000;
	1077	2	0	0	0	0	1	0.9918018	-40.435232	18	9	1.1	0.9	19.0200	0.0000	0.0000	0.0000;
	1078	2	0	0	0	0	1	1.01	-29.999327	18	9	1.1	0.9	19.0200	0.0000	0.0000	0.0000;
	1079	2	0	0	0	0	1	1.0156895	-58.076557	500	9	1.1	0.9	19.0200	0.0000	0.0000	0.0000;
	1080	2	0	0	0	0	1	1.01	-29.415572	18	9	1.1	0.9	19.0200	0.0000	0.0000	0.0000;
	1081	2	0	0	0	140	1	1.0468413	-37.211224	230	9	1.1	0.9	19.0200	0.0000	0.0000	0.0000;
	1082	2	0	0	0	0	1	1.035562	-24.371656	115	9	1.1	0.9	19.0200	0.0000	0.0000	0.0000;
	1083	1	39.95	11.32	0	26.15	1	1.0339872	-28.391094	115	9	1.1	0.9	19.0200	0.0000	0.0000	0.0000;
	1084	2	0	0	0	0	1	1.0296296	-35.387485	115	9	1.1	0.9	19.0200	0.0000	0.0000	0.0000;
	1085	1	21.3	6.03	0	0	1	1.0153108	-34.069223	115	9	1.1	0.9	19.0200	0.0000	0.0000	0.0000;
	1086	1	39.67	11.24	0	30	1	1.0234596	-36.281714	115	9	1.1	0.9	19.0200	0.0000	0.0000	0.0000;
	1087	1	0.91	0.26	0	30	1	1.05797	-33.920919	115	9	1.1	0.9	19.0200	0.0000	0.0000	0.0000;
	1088	2	0	0	0	0	1	1	-30.269318	115	9	1.1	0.9	19.0200	0.0000	0.0000	0.0000;
	1089	1	40.6	11.5	0	0	1	0.9877149	-40.819483	115	9	1.1	0.9	19.0200	0.0000	0.0000	0.0000;
	1090	2	0	0	0	0	1	1.02	-34.896894	115	9	1.1	0.9	19.0200	0.0000	0.0000	0.0000;
	1091	1	11.62	3.29	0	0	1	1.0256985	-51.208108	161	9	1.1	0.9	19.0200	0.0000	0.0000	0.0000;
	2001	1	48.36	13.7	0	0	2	1.0036054	-81.929085	161	11	1.1	0.9	19.0200	0.0000	0.0000	0.0000;
	2002	1	0	0	0	0	2	1.0129914	-83.353533	500	11	1.1	0.9	19.0200	0.0000	0.0000	0.0000;
	2003	1	0	0	0	0	2	1.0116692	-85.594225	161	11	1.1	0.9	19.0200	0.0000	0.0000	0.0000;
	2004	2	0	0	0	0	2	1.0129914	-83.353533	13.8	11	1.1	0.9	19.0200	0.0000	0.0000	0.0000;
	2005	2	0	0	0	0	2	1.0129914	-83.353533	13.8	11	1.1	0.9	19.0200	0.0000	0.0000	0.0000;
	2006	2	0	0	0	0	2	1.0129914	-83.353533	13.8	11	1.1	0.9	19.0200	0.0000	0.0000	0.0000;
	2007	1	9.54	2.7	0	0	2	1.0045293	-81.693105	161	11	1.1	0.9	19.0200	0.0000	0.0000	0.0000;
	2008	1	8.06	2.28	0	0	2	1.0165632	-53.209565	161	10	1.1	0.9	19.0200	0.0000	0.0000	0.0000;
	2009	1	39.14	11.09	0	120	2	1.0221563	-65.774031	161	11	1.1	0.9	19.0200	0.0000	0.0000	0.0000;
	2010	1	56.81	16.09	0	20	2	1.0180618	-56.58646	161	10	1.1	0.9	19.0200	0.0000	0.0000	0.0000;
	2011	1	0	0	0	0	2	1.0389118	-52.592832	500	10	1.1	0.9	19.0200	0.0000	0.0000	0.0000;
	2012	1	0	0	0	0	2	1.0272472	-50.339591	161	10	1.1	0.9	19.0200	0.0000	0.0000	0.0000;
	2013	2	0	0	0	0	2	1.0305531	-50.253301	18	10	1.1	0.9	19.0200	0.0000	0.0000	0.0000;
	2014	1	25.43	7.2	0	0	2	1.015031	-53.730997	161	10	1.1	0.9	19.0200	0.0000	0.0000	0.0000;
	2015	1	4.69	1.33	0	0	2	1.0104208	-84.383887	161	11	1.1	0.9	19.0200	0.0000	0.0000	0.0000;
	2016	1	69.27	19.63	0	0	2	1.0108079	-91.627019	161	11	1.1	0.9	19.0200	0.0000	0.0000	0.0000;
	2017	1	0	0	0	-200	2	1.0291129	-52.688185	500	10	1.1	0.9	19.0200	0.0000	0.0000	0.0000;
	2018	1	0	0	0	0	2	1.0270505	-51.909642	161	10	1.1	0.9	19.0200	0.0000	0.0000	0.0000;
	2019	2	0	0	0	0	2	1.0291129	-52.688185	20	10	1.1	0.9	19.0200	0.0000	0.0000	0.0000;
	2020	1	47.97	13.59	0	0	2	0.995809	-65.456612	161	11	1.1	0.9	19.0200	0.0000	0.0000	0.0000;
	2021	1	0	0	0	0	2	1.0155406	-78.684237	500	11	1.1	0.9	19.0200	0.0000	0.0000	0.0000;
	2022	1	11.56	3.28	0	0	2	1.0117921	-80.594989	161	11	1.1	0.9	19.0200	0.0000	0.0000	0.0000;
	2023	2	0	0	0	0	2	1.02	-77.117869	13.8	11	1.1	0.9	19.0200	0.0000	0.0000	0.0000;
	2024	2	0	0	0	0	2	1.02	-76.45161	13.8	11	1.1	0.9	19.0200	0.0000	0.0000	0.0000;
	2025	1	39.62	11.23	0	0	2	0.9945682	-64.664592	161	11	1.1	0.9	19.0200	0.0000	0.0000	0.0000;
	2026	1	18.57	5.26	0	0	2	1.0265157	-51.568334	161	10	1.1	0.9	19.0200	0.0000	0.0000	0.0000;
	2027	1	3.55	1.01	0	0	2	1.0041048	-82.352059	161	11	1.1	0.9	19.0200	0.0000	0.0000	0.0000;
	2028	1	14.24	4.03	0	0	2	0.9956393	-67.868719	161	11	1.1	0.9	19.0200	0.0000	0.0000	0.0000;
	2029	1	3.2	0.91	0	0	2	1.0206819	-53.061296	161	10	1.1	0.9	19.0200	0.0000	0.0000	0.0000;
	2030	1	47.15	13.36	0	0	2	0.9906906	-85.881214	161	11	1.1	0.9	19.0200	0.0000	0.0000	0.0000;
	2031	1	5.77	1.63	0	0	2	1.0201642	-49.615875	161	10	1.1	0.9	19.0200	0.0000	0.0000	0.0000;
	2032	1	3.35	0.95	0	0	2	1.0065187	-81.099889	161	11	1.1	0.9	19.0200	0.0000	0.0000	0.0000;
	2033	1	13.57	3.85	0	0	2	0.9932254	-87.336133	161	11	1.1	0.9	19.0200	0.0000	0.0000	0.0000;
	2034	1	5.34	1.51	0	0	2	1.0087046	-90.977995	161	11	1.1	0.9	19.0200	0.0000	0.0000	0.0000;
	2035	1	4.68	1.33	0	0	2	1.014046	-50.49179	161	10	1.1	0.9	19.0200	0.0000	0.0000	0.0000;
	2036	1	41.59	11.78	0	0	2	0.9997658	-65.041193	161	11	1.1	0.9	19.0200	0.0000	0.0000	0.0000;
	2037	1	3.5	0.99	0	0	2	1.0217681	-84.789997	161	11	1.1	0.9	19.0200	0.0000	0.0000	0.0000;
	2038	1	2.6	0.74	0	0	2	1.0086758	-86.064624	161	11	1.1	0.9	19.0200	0.0000	0.0000	0.0000;
	2039	1	5.56	1.58	0	0	2	0.9936701	-81.583374	161	11	1.1	0.9	19.0200	0.0000	0.0000	0.0000;
	2040	1	15.9	4.51	0	0	2	1.0093097	-81.264534	161	11	1.1	0.9	19.0200	0.0000	0.0000	0.0000;
	2041	1	0	0	0	0	2	1.0281571	-48.159277	161	10	1.1	0.9	19.0200	0.0000	0.0000	0.0000;
	2042	2	0	0	0	0	2	1.0195651	-45.584699	18	10	1.1	0.9	19.0200	0.0000	0.0000	0.0000;
	2043	1	4.24	1.2	0	0	2	1.009427	-91.275042	161	11	1.1	0.9	19.0200	0.0000	0.0000	0.0000;
	2044	1	27.4	7.76	0	0	2	1.0171214	-86.795296	161	11	1.1	0.9	19.0200	0.0000	0.0000	0.0000;
	2045	1	22.61	6.4	0	0	2	0.995162	-66.005071	161	11	1.1	0.9	19.0200	0.0000	0.0000	0.0000;
	2046	1	22.13	6.27	0	0	2	1.0083207	-90.602033	161	11	1.1	0.9	19.0200	0.0000	0.0000	0.0000;
	2047	1	14.96	4.24	0	0	2	1.0104348	-86.486992	161	11	1.1	0.9	19.0200	0.0000	0.0000	0.0000;
	2048	1	6.42	1.82	0	0	2	1.0235479	-51.815306	161	10	1.1	0.9	19.0200	0.0000	0.0000	0.0000;
	2049	1	11.57	3.28	0	0	2	1.0184718	-61.400783	161	10	1.1	0.9	19.0200	0.0000	0.0000	0.0000;
	2050	1	3.66	1.04	0	0	2	0.9963561	-85.111234	161	11	1.1	0.9	19.0200	0.0000	0.0000	0.0000;
	2051	1	17.85	5.06	0	0	2	0.99123	-74.946181	161	11	1.1	0.9	19.0200	0.0000	0.0000	0.0000;
	2052	1	24.84	7.04	0	0	2	1.0177648	-52.385446	161	10	1.1	0.9	19.0200	0.0000	0.0000	0.0000;
	2053	1	29.13	8.25	0	0	2	0.992133	-80.140906	161	11	1.1	0.9	19.0200	0.0000	0.0000	0.0000;
	2054	1	0	0	0	0	2	0.9981559	-63.691529	500	11	1.1	0.9	19.0200	0.0000	0.0000	0.0000;
	2055	1	49.62	14.06	0	0	2	0.9978564	-64.51895	161	11	1.1	0.9	19.0200	0.0000	0.0000	0.0000;
	2056	2	0	0	0	0	2	0.9981559	-63.691529	18	11	1.1	0.9	19.0200	0.0000	0.0000	0.0000;
	2057	2	0	0	0	0	2	0.99	-59.708737	18	11	1.1	0.9	19.0200	0.0000	0.0000	0.0000;
	2058	1	0	0	0	0	2	1.0284759	-47.733742	161	10	1.1	0.9	19.0200	0.0000	0.0000	0.0000;
	2059	2	0	0	0	0	2	1.0184795	-44.388191	13.8	10	1.1	0.9	19.0200	0.0000	0.0000	0.0000;
	2060	1	3.8	1.08	0	0	2	0.9994924	-83.842968	161	11	1.1	0.9	19.0200	0.0000	0.0000	0.0000;
	2061	1	0	0	0	0	2	1.0210129	-57.79729	161	10	1.1	0.9	19.0200	0.0000	0.0000	0.0000;
	2062	2	0	0	0	0	2	1.02	-55.500461	18	10	1.1	0.9	19.0200	0.0000	0.0000	0.0000;
	2063	1	65.62	18.59	0	40	2	1.0094948	-89.976659	161	11	1.1	0.9	19.0200	0.0000	0.0000	0.0000;
	2064	1	10.05	2.85	0	0	2	1.0050502	-82.204219	161	11	1.1	0.9	19.0200	0.0000	0.0000	0.0000;
	2065	1	78.36	22.2	0	100	2	1.0252721	-86.840261	161	11	1.1	0.9	19.0200	0.0000	0.0000	0.0000;
	2066	1	7.11	2.02	0	0	2	1.0138187	-47.463005	161	10	1.1	0.9	19.0200	0.0000	0.0000	0.0000;
	2067	1	53.97	15.29	0	0	2	0.9928075	-64.564071	161	11	1.1	0.9	19.0200	0.0000	0.0000	0.0000;
	2068	1	5.76	1.63	0	0	2	0.9992311	-62.434133	161	11	1.1	0.9	19.0200	0.0000	0.0000	0.0000;
	2069	1	21.92	6.21	0	120	2	1.0253031	-90.783489	161	11	1.1	0.9	19.0200	0.0000	0.0000	0.0000;
	2070	1	0	0	0	0	2	1.0012863	-61.979648	161	11	1.1	0.9	19.0200	0.0000	0.0000	0.0000;
	2071	2	0	0	0	0	2	1	-58.301727	18	11	1.1	0.9	19.0200	0.0000	0.0000	0.0000;
	2072	1	9.71	2.75	0	0	2	1.0189403	-88.91034	161	11	1.1	0.9	19.0200	0.0000	0.0000	0.0000;
	2073	1	0	0	0	0	2	1.0154431	-44.870912	161	10	1.1	0.9	19.0200	0.0000	0.0000	0.0000;
	2074	1	0	0	0	0	2	1.0056593	-42.946619	115	10	1.1	0.9	19.0200	0.0000	0.0000	0.0000;
	2075	1	0	0	0	0	2	1.0056593	-42.946619	115	10	1.1	0.9	19.0200	0.0000	0.0000	0.0000;
	2076	2	0	0	0	0	2	1.0207066	-43.964092	24	10	1.1	0.9	19.0200	0.0000	0.0000	0.0000;
	2077	1	0	0	0	0	2	1.0221927	-82.309889	161	11	1.1	0.9	19.0200	0.0000	0.0000	0.0000;
	2078	2	0	0	0	0	2	1.02	-78.994584	13.8	11	1.1	0.9	19.0200	0.0000	0.0000	0.0000;
	2079	1	4.48	1.27	0	0	2	1.0210636	-54.774605	161	10	1.1	0.9	19.0200	0.0000	0.0000	0.0000;
	2080	1	16.93	4.8	0	0	2	0.996963	-78.403978	161	11	1.1	0.9	19.0200	0.0000	0.0000	0.0000;
	2081	1	4.46	1.26	0	0	2	1.0033031	-86.866822	161	11	1.1	0.9	19.0200	0.0000	0.0000	0.0000;
	2082	1	59.03	16.73	0	0	2	1.0040216	-65.384313	161	11	1.1	0.9	19.0200	0.0000	0.0000	0.0000;
	2083	2	0	0	0	0	2	1.0187259	-63.803881	20	11	1.1	0.9	19.0200	0.0000	0.0000	0.0000;
	2084	2	0	0	0	0	2	1.0040216	-65.384313	20	11	1.1	0.9	19.0200	0.0000	0.0000	0.0000;
	2085	2	0	0	0	0	2	1.0040216	-65.384313	20	11	1.1	0.9	19.0200	0.0000	0.0000	0.0000;
	2086	1	2.19	0.62	0	0	2	0.9948319	-80.383769	161	11	1.1	0.9	19.0200	0.0000	0.0000	0.0000;
	2087	1	7.9	2.24	0	0	2	1.0171312	-47.337083	161	10	1.1	0.9	19.0200	0.0000	0.0000	0.0000;
	2088	1	0	0	0	0	2	1.000287	-62.120943	161	11	1.1	0.9	19.0200	0.0000	0.0000	0.0000;
	2089	2	0	0	0	0	2	1	-58.518563	24	11	1.1	0.9	19.0200	0.0000	0.0000	0.0000;
	2090	1	2.42	0.69	0	0	2	1.0045185	-82.958284	161	11	1.1	0.9	19.0200	0.0000	0.0000	0.0000;
	2091	1	17.05	4.83	0	0	2	1.0146672	-54.035634	161	10	1.1	0.9	19.0200	0.0000	0.0000	0.0000;
	2092	1	24.11	6.83	0	0	2	1.0084001	-88.306931	161	11	1.1	0.9	19.0200	0.0000	0.0000	0.0000;
	2093	1	0	0	0	0	2	1.0276153	-51.083709	161	10	1.1	0.9	19.0200	0.0000	0.0000	0.0000;
	2094	2	0	0	0	0	2	1.0276153	-51.083709	13.8	10	1.1	0.9	19.0200	0.0000	0.0000	0.0000;
	2095	2	0	0	0	0	2	1.0276153	-51.083709	13.8	10	1.1	0.9	19.0200	0.0000	0.0000	0.0000;
	2096	1	0	0	0	-100	2	1.0232132	-48.123522	500	10	1.1	0.9	19.0200	0.0000	0.0000	0.0000;
	2097	1	0	0	0	0	2	1.0220705	-47.520796	230	10	1.1	0.9	19.0200	0.0000	0.0000	0.0000;
	2098	1	0	0	0	0	2	1.0268054	-50.62656	161	10	1.1	0.9	19.0200	0.0000	0.0000	0.0000;
	2099	2	0	0	0	0	2	1.0227425	-47.980527	18	10	1.1	0.9	19.0200	0.0000	0.0000	0.0000;
	2100	2	0	0	0	0	2	1.02	-45.503816	18	10	1.1	0.9	19.0200	0.0000	0.0000	0.0000;
	2101	1	0	0	0	0	2	1.0123617	-84.401898	500	11	1.1	0.9	19.0200	0.0000	0.0000	0.0000;
	2102	1	0	0	0	0	2	1.0127834	-85.788109	161	11	1.1	0.9	19.0200	0.0000	0.0000	0.0000;
	2103	2	0	0	0	0	2	1.0123617	-84.401898	20	11	1.1	0.9	19.0200	0.0000	0.0000	0.0000;
	2104	2	0	0	0	0	2	1.0123617	-84.401898	20	11	1.1	0.9	19.0200	0.0000	0.0000	0.0000;
	2105	2	0	0	0	0	2	1.0123617	-84.401898	20	11	1.1	0.9	19.0200	0.0000	0.0000	0.0000;
	2106	1	14.4	4.08	0	0	2	0.9915649	-87.961693	161	11	1.1	0.9	19.0200	0.0000	0.0000	0.0000;
	2107	1	74.15	21.01	0	0	2	1.0072149	-86.630686	161	11	1.1	0.9	19.0200	0.0000	0.0000	0.0000;
	2108	1	2.14	0.61	0	0	2	0.9990759	-63.584279	161	10	1.1	0.9	19.0200	0.0000	0.0000	0.0000;
	2109	1	33.81	9.58	0	0	2	1.0083137	-66.93828	161	11	1.1	0.9	19.0200	0.0000	0.0000	0.0000;
...
];

%% generator data
%	bus	Pg	Qg	Qmax	Qmin	Vg	mBase	status	Pmax	Pmin	Pc1	Pc2	Qc1min	Qc1max	Qc2min	Qc2max	ramp_agc	ramp_10	ramp_30	ramp_q	apf	mu_Pmax	mu_Pmin	mu_Qmax	mu_Qmin
mpc.gen = [
	1004	158.25	-30.38	44.94	-30.38	1.01	253.2	1	158.25	158.25	0	0	0	0	0	0	0	0	0	0	211	0.0000	0.0000	0.0000	0.0000;
	1006	25.73	-4.94	7.31	-4.94	1	41.16	1	25.73	25.73	0	0	0	0	0	0	0	0	0	0	34.3	0.0000	0.0000	0.0000	0.0000;
	1009	61.87	-11.88	17.57	-11.88	1	99	1	61.87	61.87	0	0	0	0	0	0	0	0	0	0	82.5	0.0000	0.0000	0.0000	0.0000;
	1011	7.5	0	0	0	1	12	1	7.5	7.5	0	0	0	0	0	0	0	0	0	0	10	0.0000	0.0000	0.0000	0.0000;
	1021	149.63	-28.73	42.49	-28.73	1	239.4	1	149.63	149.63	0	0	0	0	0	0	0	0	0	0	199.5	0.0000	0.0000	0.0000	0.0000;
	1023	135	0.8	38.34	-25.92	1.01	216	1	135	135	0	0	0	0	0	0	0	0	0	0	180	0.0000	0.0000	0.0000	0.0000;
	1026	93.15	-6.76	26.45	-17.88	1	149.04	1	93.15	93.15	0	0	0	0	0	0	0	0	0	0	124.2	0.0000	0.0000	0.0000	0.0000;
	1033	208.5	-40.03	59.21	-40.03	1	333.6	1	208.5	208.5	0	0	0	0	0	0	0	0	0	0	278	0.0000	0.0000	0.0000	0.0000;
	1035	67.5	-9.94	19.17	-12.96	1	108	1	67.5	67.5	0	0	0	0	0	0	0	0	0	0	90	0.0000	0.0000	0.0000	0.0000;
	1039	110.63	-21.24	31.42	-21.24	1	177	1	110.63	110.63	0	0	0	0	0	0	0	0	0	0	147.5	0.0000	0.0000	0.0000	0.0000;
	1042	0	0	25.96	-17.55	1	146.28	0	121.9	36.57	0	0	0	0	0	0	0	0	0	0	121.9	0.0000	0.0000	0.0000	0.0000;
	1043	44.1	-4.52	12.52	-8.47	1	70.56	1	44.1	44.1	0	0	0	0	0	0	0	0	0	0	58.8	0.0000	0.0000	0.0000	0.0000;
	1048	0	0	165.53	-36.1	1	390.24	0	325.2	97.56	0	0	0	0	0	0	0	0	0	0	325.2	0.0000	0.0000	0.0000	0.0000;
	1049	0	0	165.53	-36.1	1	390.24	0	325.2	97.56	0	0	0	0	0	0	0	0	0	0	325.2	0.0000	0.0000	0.0000	0.0000;
	1050	89.4	-9.92	45.5	-9.92	1	107.28	1	89.4	26.82	0	0	0	0	0	0	0	0	0	0	89.4	0.0000	0.0000	0.0000	0.0000;
	1051	89.4	-9.4	45.5	-9.92	1	107.28	1	89.4	26.82	0	0	0	0	0	0	0	0	0	0	89.4	0.0000	0.0000	0.0000	0.0000;
	1052	89.4	-9.92	45.5	-9.92	1	107.28	1	89.4	26.82	0	0	0	0	0	0	0	0	0	0	89.4	0.0000	0.0000	0.0000	0.0000;
	1053	0	0	91.01	-19.85	1	214.56	0	178.8	53.64	0	0	0	0	0	0	0	0	0	0	178.8	0.0000	0.0000	0.0000	0.0000;
	1057	0	0	25.56	-17.28	1	144	0	120	36	0	0	0	0	0	0	0	0	0	0	120	0.0000	0.0000	0.0000	0.0000;
	1059	0	0	2.85	-0.62	1.04	6.72	0	5.6	1.68	0	0	0	0	0	0	0	0	0	0	5.6	0.0000	0.0000	0.0000	0.0000;
	1060	0	0	1.02	-0.22	1.04	2.4	0	2	0.6	0	0	0	0	0	0	0	0	0	0	2	0.0000	0.0000	0.0000	0.0000;
	1062	0	0	0	0	1.01	1.8	0	1.5	0.45	0	0	0	0	0	0	0	0	0	0	1.5	0.0000	0.0000	0.0000	0.0000;
	1063	0	0	0	0	1.01	276	0	230	69	0	0	0	0	0	0	0	0	0	0	230	0.0000	0.0000	0.0000	0.0000;
	1066	106.88	-4.91	30.35	-20.52	1	171	1	106.88	106.88	0	0	0	0	0	0	0	0	0	0	142.5	0.0000	0.0000	0.0000	0.0000;
	1070	120.38	-0.84	34.19	-23.11	1.04	192.6	1	120.38	120.38	0	0	0	0	0	0	0	0	0	0	160.5	0.0000	0.0000	0.0000	0.0000;
	1072	192.13	25.21	97.8	-21.33	1.01	230.56	1	192.13	57.64	0	0	0	0	0	0	0	0	0	0	192.13	0.0000	0.0000	0.0000	0.0000;
	1073	192.13	32.62	97.8	-21.33	1.01	230.56	1	192.13	57.64	0	0	0	0	0	0	0	0	0	0	192.13	0.0000	0.0000	0.0000	0.0000;
	1074	192.13	28.84	97.8	-21.33	1.01	230.56	1	192.13	57.64	0	0	0	0	0	0	0	0	0	0	192.13	0.0000	0.0000	0.0000	0.0000;
	1075	192.13	29.57	97.8	-21.33	1.01	230.56	1	192.13	57.64	0	0	0	0	0	0	0	0	0	0	192.13	0.0000	0.0000	0.0000	0.0000;
	1076	0	0	97.8	-21.33	1.01	230.56	0	192.13	57.64	0	0	0	0	0	0	0	0	0	0	192.13	0.0000	0.0000	0.0000	0.0000;
	1077	0	0	97.8	-21.33	1.01	230.56	0	192.13	57.64	0	0	0	0	0	0	0	0	0	0	192.13	0.0000	0.0000	0.0000	0.0000;
	1078	95.5	15.64	48.61	-10.6	1.01	114.6	1	95.5	28.65	0	0	0	0	0	0	0	0	0	0	95.5	0.0000	0.0000	0.0000	0.0000;
	1079	95.5	-10.6	48.61	-10.6	1.01	114.6	1	95.5	28.65	0	0	0	0	0	0	0	0	0	0	95.5	0.0000	0.0000	0.0000	0.0000;
	1080	95.5	12.54	48.61	-10.6	1.01	114.6	1	95.5	28.65	0	0	0	0	0	0	0	0	0	0	95.5	0.0000	0.0000	0.0000	0.0000;
	1081	0	0	145.83	-31.8	1.01	343.8	0	286.5	85.95	0	0	0	0	0	0	0	0	0	0	286.5	0.0000	0.0000	0.0000	0.0000;
	1082	112.5	-21.6	31.95	-21.6	1	180	1	112.5	112.5	0	0	0	0	0	0	0	0	0	0	150	0.0000	0.0000	0.0000	0.0000;
	1084	86.62	24.6	24.6	-16.63	1.04	138.6	1	86.62	86.62	0	0	0	0	0	0	0	0	0	0	115.5	0.0000	0.0000	0.0000	0.0000;
	1088	56.25	-8.3	15.97	-10.8	1	90	1	56.25	56.25	0	0	0	0	0	0	0	0	0	0	75	0.0000	0.0000	0.0000	0.0000;
	1090	114.37	21.81	32.48	-21.96	1.02	183	1	114.37	114.37	0	0	0	0	0	0	0	0	0	0	152.5	0.0000	0.0000	0.0000	0.0000;
	1090	27	7.67	7.67	-5.18	1.02	43.2	1	27	27	0	0	0	0	0	0	0	0	0	0	36	0.0000	0.0000	0.0000	0.0000;
	2004	0	0	199.43	-43.49	1.02	470.16	0	391.8	117.54	0	0	0	0	0	0	0	0	0	0	391.8	0.0000	0.0000	0.0000	0.0000;
	2005	0	0	199.43	-43.49	1.02	470.16	0	391.8	117.54	0	0	0	0	0	0	0	0	0	0	391.8	0.0000	0.0000	0.0000	0.0000;
	2006	0	0	199.43	-43.49	1.02	470.16	0	391.8	117.54	0	0	0	0	0	0	0	0	0	0	391.8	0.0000	0.0000	0.0000	0.0000;
	2013	150.45	-28.89	42.73	-28.89	1	240.72	1	150.45	150.45	0	0	0	0	0	0	0	0	0	0	200.6	0.0000	0.0000	0.0000	0.0000;
	2019	0	0	46.43	-31.39	1.04	261.6	0	218	65.4	0	0	0	0	0	0	0	0	0	0	218	0.0000	0.0000	0.0000	0.0000;
	2023	83.33	13.17	42.42	-9.25	1.02	100	1	83.33	25	0	0	0	0	0	0	0	0	0	0	83.33	0.0000	0.0000	0.0000	0.0000;
	2024	166.67	19.5	84.83	-18.5	1.02	200	1	166.67	50	0	0	0	0	0	0	0	0	0	0	166.67	0.0000	0.0000	0.0000	0.0000;
	2042	59.7	-11.46	16.95	-11.46	1.01	95.52	1	59.7	59.7	0	0	0	0	0	0	0	0	0	0	79.6	0.0000	0.0000	0.0000	0.0000;
	2056	0	0	2.8	-0.73	0.99	7.2	0	6	1.8	0	0	0	0	0	0	0	0	0	0	6	0.0000	0.0000	0.0000	0.0000;
	2057	518.4	-52.85	335.52	-87.84	0.99	864	1	720	216	0	0	0	0	0	0	0	0	0	0	720	0.0000	0.0000	0.0000	0.0000;
	2059	60	-11.52	17.04	-11.52	1	96	1	60	60	0	0	0	0	0	0	0	0	0	0	80	0.0000	0.0000	0.0000	0.0000;
	2062	101.55	-4.44	28.84	-19.5	1.02	162.48	1	101.55	101.55	0	0	0	0	0	0	0	0	0	0	135.4	0.0000	0.0000	0.0000	0.0000;
	2071	112.5	-1.18	31.95	-21.6	1	180	1	112.5	112.5	0	0	0	0	0	0	0	0	0	0	150	0.0000	0.0000	0.0000	0.0000;
	2076	22.5	6.39	6.39	-4.32	1.04	36	1	22.5	22.5	0	0	0	0	0	0	0	0	0	0	30	0.0000	0.0000	0.0000	0.0000;
	2078	84.38	-3.05	23.96	-16.2	1.02	135	1	84.38	84.38	0	0	0	0	0	0	0	0	0	0	112.5	0.0000	0.0000	0.0000	0.0000;
	2083	20	10.18	10.18	-2.22	1.02	24	1	20	6	0	0	0	0	0	0	0	0	0	0	20	0.0000	0.0000	0.0000	0.0000;
	2084	0	0	10.18	-2.22	1.02	24	0	20	6	0	0	0	0	0	0	0	0	0	0	20	0.0000	0.0000	0.0000	0.0000;
	2085	0	0	20.36	-4.44	1.02	48	0	40	12	0	0	0	0	0	0	0	0	0	0	40	0.0000	0.0000	0.0000	0.0000;
	2089	50.7	0.3	14.4	-9.73	1	81.12	1	50.7	50.7	0	0	0	0	0	0	0	0	0	0	67.6	0.0000	0.0000	0.0000	0.0000;
	2094	0	0	2.13	-1.44	1	12	0	10	3	0	0	0	0	0	0	0	0	0	0	10	0.0000	0.0000	0.0000	0.0000;
	2095	0	0	16.93	-11.45	1	95.4	0	79.5	23.85	0	0	0	0	0	0	0	0	0	0	79.5	0.0000	0.0000	0.0000	0.0000;
	2099	7.5	-1.44	2.13	-1.44	1.02	12	1	7.5	7.5	0	0	0	0	0	0	0	0	0	0	10	0.0000	0.0000	0.0000	0.0000;
	2100	112.5	-7.15	31.95	-21.6	1.02	180	1	112.5	112.5	0	0	0	0	0	0	0	0	0	0	150	0.0000	0.0000	0.0000	0.0000;
	2103	0	0	136.28	-29.72	1	321.28	0	267.73	80.32	0	0	0	0	0	0	0	0	0	0	267.73	0.0000	0.0000	0.0000	0.0000;
	2104	0	0	136.28	-29.72	1	321.28	0	267.73	80.32	0	0	0	0	0	0	0	0	0	0	267.73	0.0000	0.0000	0.0000	0.0000;
	2105	0	0	136.28	-29.72	1	321.28	0	267.73	80.32	0	0	0	0	0	0	0	0	0	0	267.73	0.0000	0.0000	0.0000	0.0000;
	2115	184.72	-20.5	94.02	-20.5	1	221.66	1	184.72	55.41	0	0	0	0	0	0	0	0	0	0	184.72	0.0000	0.0000	0.0000	0.0000;
	2116	184.72	-20.5	94.02	-20.5	1	221.66	1	184.72	55.41	0	0	0	0	0	0	0	0	0	0	184.72	0.0000	0.0000	0.0000	0.0000;
	2117	184.72	-20.5	94.02	-20.5	1	221.66	1	184.72	55.41	0	0	0	0	0	0	0	0	0	0	184.72	0.0000	0.0000	0.0000	0.0000;
	2118	184.72	-20.5	94.02	-20.5	1	221.66	1	184.72	55.41	0	0	0	0	0	0	0	0	0	0	184.72	0.0000	0.0000	0.0000	0.0000;
	2119	184.72	-20.5	94.02	-20.5	1	221.66	1	184.72	55.41	0	0	0	0	0	0	0	0	0	0	184.72	0.0000	0.0000	0.0000	0.0000;
	2120	184.72	-6.6	94.02	-20.5	1.01	221.66	1	184.72	55.41	0	0	0	0	0	0	0	0	0	0	184.72	0.0000	0.0000	0.0000	0.0000;
	2123	136.28	-26.16	38.7	-26.16	1	218.04	1	136.28	136.28	0	0	0	0	0	0	0	0	0	0	181.7	0.0000	0.0000	0.0000	0.0000;
	2127	216.45	-9.78	61.47	-41.56	1.04	346.32	1	216.45	216.45	0	0	0	0	0	0	0	0	0	0	288.6	0.0000	0.0000	0.0000	0.0000;
	3004	28.13	-5.4	7.99	-5.4	1	45	1	28.13	28.13	0	0	0	0	0	0	0	0	0	0	37.5	0.0000	0.0000	0.0000	0.0000;
	3017	127.13	-0.38	36.1	-24.41	1.01	203.4	1	127.13	127.13	0	0	0	0	0	0	0	0	0	0	169.5	0.0000	0.0000	0.0000	0.0000;
	3020	112.5	-5.7	31.95	-21.6	1.03	180	1	112.5	112.5	0	0	0	0	0	0	0	0	0	0	150	0.0000	0.0000	0.0000	0.0000;
	3028	150	40.51	42.6	-28.8	1.04	240	1	150	150	0	0	0	0	0	0	0	0	0	0	200	0.0000	0.0000	0.0000	0.0000;
	3034	97.87	17.99	27.8	-18.79	1.03	156.6	1	97.87	97.87	0	0	0	0	0	0	0	0	0	0	130.5	0.0000	0.0000	0.0000	0.0000;
	3039	156.75	44.52	44.52	-30.1	1.04	250.8	1	156.75	156.75	0	0	0	0	0	0	0	0	0	0	209	0.0000	0.0000	0.0000	0.0000;
	3043	0	0	0.66	-0.14	1.04	1.56	0	1.3	0.39	0	0	0	0	0	0	0	0	0	0	1.3	0.0000	0.0000	0.0000	0.0000;
	3044	0	0	45.5	-9.92	1.04	107.28	0	89.4	26.82	0	0	0	0	0	0	0	0	0	0	89.4	0.0000	0.0000	0.0000	0.0000;
	3045	0	0	227.52	-49.62	1.04	536.4	0	447	134.1	0	0	0	0	0	0	0	0	0	0	447	0.0000	0.0000	0.0000	0.0000;
	3048	180.75	51.33	51.33	-34.7	1.04	289.2	1	180.75	180.75	0	0	0	0	0	0	0	0	0	0	241	0.0000	0.0000	0.0000	0.0000;
	3055	183.88	40.55	52.22	-35.3	1.04	294.2	1	183.88	183.88	0	0	0	0	0	0	0	0	0	0	245.17	0.0000	0.0000	0.0000	0.0000;
	3056	183.88	26.67	52.22	-35.3	1.04	294.2	1	183.88	183.88	0	0	0	0	0	0	0	0	0	0	245.17	0.0000	0.0000	0.0000	0.0000;
	3057	183.88	25.12	52.22	-35.3	1.04	294.2	1	183.88	183.88	0	0	0	0	0	0	0	0	0	0	245.17	0.0000	0.0000	0.0000	0.0000;
	3060	124.22	12.68	35.28	-23.85	1.04	198.75	1	124.22	124.22	0	0	0	0	0	0	0	0	0	0	165.63	0.0000	0.0000	0.0000	0.0000;
	3061	124.22	13.24	35.28	-23.85	1.04	198.75	1	124.22	124.22	0	0	0	0	0	0	0	0	0	0	165.63	0.0000	0.0000	0.0000	0.0000;
	3062	124.22	18.08	35.28	-23.85	1.04	198.75	1	124.22	124.22	0	0	0	0	0	0	0	0	0	0	165.63	0.0000	0.0000	0.0000	0.0000;
	3063	124.22	13.9	35.28	-23.85	1.04	198.75	1	124.22	124.22	0	0	0	0	0	0	0	0	0	0	165.63	0.0000	0.0000	0.0000	0.0000;
	3065	60.37	-10.34	17.15	-11.59	1	96.6	1	60.37	60.37	0	0	0	0	0	0	0	0	0	0	80.5	0.0000	0.0000	0.0000	0.0000;
	3068	112.5	26.85	31.95	-21.6	1.04	180	1	112.5	112.5	0	0	0	0	0	0	0	0	0	0	150	0.0000	0.0000	0.0000	0.0000;
	3071	127.65	-24.51	36.25	-24.51	1	204.24	1	127.65	127.65	0	0	0	0	0	0	0	0	0	0	170.2	0.0000	0.0000	0.0000	0.0000;
	3074	74.85	-14.37	21.26	-14.37	1	119.76	1	74.85	74.85	0	0	0	0	0	0	0	0	0	0	99.8	0.0000	0.0000	0.0000	0.0000;
	3081	186.75	38.45	53.04	-35.86	1.04	298.8	1	186.75	186.75	0	0	0	0	0	0	0	0	0	0	249	0.0000	0.0000	0.0000	0.0000;
	3084	174.37	-6.99	49.52	-33.48	1	279	1	174.37	174.37	0	0	0	0	0	0	0	0	0	0	232.5	0.0000	0.0000	0.0000	0.0000;
	3086	56.25	-0.69	15.97	-10.8	1	90	1	56.25	56.25	0	0	0	0	0	0	0	0	0	0	75	0.0000	0.0000	0.0000	0.0000;
	3087	0	0	15.97	-10.8	1	90	0	75	22.5	0	0	0	0	0	0	0	0	0	0	75	0.0000	0.0000	0.0000	0.0000;
	3092	150	21.99	42.6	-28.8	1.04	240	1	150	150	0	0	0	0	0	0	0	0	0	0	200	0.0000	0.0000	0.0000	0.0000;
	3095	90.45	19.28	25.69	-17.37	1.04	144.72	1	90.45	90.45	0	0	0	0	0	0	0	0	0	0	120.6	0.0000	0.0000	0.0000	0.0000;
	3098	120	20.69	34.08	-23.04	1.04	192	1	120	120	0	0	0	0	0	0	0	0	0	0	160	0.0000	0.0000	0.0000	0.0000;
	3105	15	-0.74	5.76	-0.74	1	18	1	15	4.5	0	0	0	0	0	0	0	0	0	0	15	0.0000	0.0000	0.0000	0.0000;
	3106	54.9	-2.69	21.08	-2.69	1	65.88	1	54.9	16.47	0	0	0	0	0	0	0	0	0	0	54.9	0.0000	0.0000	0.0000	0.0000;
	3110	63	13.09	17.89	-12.1	1.04	100.8	1	63	63	0	0	0	0	0	0	0	0	0	0	84	0.0000	0.0000	0.0000	0.0000;
	3112	56.1	-2.86	15.93	-10.77	1	89.76	1	56.1	56.1	0	0	0	0	0	0	0	0	0	0	74.8	0.0000	0.0000	0.0000	0.0000;
	3113	56.1	-2.17	15.93	-10.77	1	89.76	1	56.1	56.1	0	0	0	0	0	0	0	0	0	0	74.8	0.0000	0.0000	0.0000	0.0000;
	3117	47.25	-3.79	13.42	-9.07	1	75.6	1	47.25	47.25	0	0	0	0	0	0	0	0	0	0	63	0.0000	0.0000	0.0000	0.0000;
	3118	90	-6.66	25.56	-17.28	1	144	1	90	90	0	0	0	0	0	0	0	0	0	0	120	0.0000	0.0000	0.0000	0.0000;
	3120	29.7	0	0	0	1	47.52	1	29.7	29.7	0	0	0	0	0	0	0	0	0	0	39.6	0.0000	0.0000	0.0000	0.0000;
	3122	147.75	-11.08	41.96	-28.37	1	236.4	1	147.75	147.75	0	0	0	0	0	0	0	0	0	0	197	0.0000	0.0000	0.0000	0.0000;
	3127	101.25	-19.44	28.76	-19.44	1	162	1	101.25	101.25	0	0	0	0	0	0	0	0	0	0	135	0.0000	0.0000	0.0000	0.0000;
	3129	94.88	-18.22	26.94	-18.22	1	151.8	1	94.88	94.88	0	0	0	0	0	0	0	0	0	0	126.5	0.0000	0.0000	0.0000	0.0000;
	3131	85.5	19.01	24.28	-16.42	1.02	136.8	1	85.5	85.5	0	0	0	0	0	0	0	0	0	0	114	0.0000	0.0000	0.0000	0.0000;
	3133	0	0	26.11	-5.69	1.04	61.56	0	51.3	15.39	0	0	0	0	0	0	0	0	0	0	51.3	0.0000	0.0000	0.0000	0.0000;
	3133	0	0	26.11	-5.69	1.04	61.56	0	51.3	15.39	0	0	0	0	0	0	0	0	0	0	51.3	0.0000	0.0000	0.0000	0.0000;
	3133	0	0	26.11	-5.69	1.04	61.56	0	51.3	15.39	0	0	0	0	0	0	0	0	0	0	51.3	0.0000	0.0000	0.0000	0.0000;
	3137	75.9	21.56	21.56	-14.57	1.03	121.44	1	75.9	75.9	0	0	0	0	0	0	0	0	0	0	101.2	0.0000	0.0000	0.0000	0.0000;
	3141	68.62	-13.18	19.49	-13.18	1	109.8	1	68.62	68.62	0	0	0	0	0	0	0	0	0	0	91.5	0.0000	0.0000	0.0000	0.0000;
	4010	151.2	13.81	42.94	-29.03	1.03	241.92	1	151.2	151.2	0	0	0	0	0	0	0	0	0	0	201.6	0.0000	0.0000	0.0000	0.0000;
	4026	410	32.98	191.06	-50.02	1.03	492	1	410	123	0	0	0	0	0	0	0	0	0	0	410	0.0000	0.0000	0.0000	0.0000;
	4030	535.26	-8.56	290.04	-75.93	1.01	746.88	1	622.4	186.72	0	0	0	0	0	0	0	0	0	0	622.4	0.0000	0.0000	0.0000	0.0000;
	4045	31.5	1.76	12.1	-1.54	1.02	37.8	1	31.5	9.45	0	0	0	0	0	0	0	0	0	0	31.5	0.0000	0.0000	0.0000	0.0000;
	4046	9.6	0.95	3.69	-0.47	1.02	11.52	1	9.6	2.88	0	0	0	0	0	0	0	0	0	0	9.6	0.0000	0.0000	0.0000	0.0000;
	4047	66	0.86	25.34	-3.23	1.02	79.2	1	66	19.8	0	0	0	0	0	0	0	0	0	0	66	0.0000	0.0000	0.0000	0.0000;
	4050	150	-14.26	42.6	-28.8	1	240	1	150	150	0	0	0	0	0	0	0	0	0	0	200	0.0000	0.0000	0.0000	0.0000;
	4052	44.2	22.5	22.5	-4.91	1.04	53.04	1	44.2	13.26	0	0	0	0	0	0	0	0	0	0	44.2	0.0000	0.0000	0.0000	0.0000;
	4058	144	21.76	73.3	-15.98	1.03	172.8	1	144	43.2	0	0	0	0	0	0	0	0	0	0	144	0.0000	0.0000	0.0000	0.0000;
	4059	144	21.99	73.3	-15.98	1.03	172.8	1	144	43.2	0	0	0	0	0	0	0	0	0	0	144	0.0000	0.0000	0.0000	0.0000;
	4060	144	18.08	73.3	-15.98	1.03	172.8	1	144	43.2	0	0	0	0	0	0	0	0	0	0	144	0.0000	0.0000	0.0000	0.0000;
	4061	172.33	23.34	87.72	-19.13	1.03	206.8	1	172.33	51.7	0	0	0	0	0	0	0	0	0	0	172.33	0.0000	0.0000	0.0000	0.0000;
	4062	172.33	18.97	87.72	-19.13	1.03	206.8	1	172.33	51.7	0	0	0	0	0	0	0	0	0	0	172.33	0.0000	0.0000	0.0000	0.0000;
	4063	172.33	25.34	87.72	-19.13	1.03	206.8	1	172.33	51.7	0	0	0	0	0	0	0	0	0	0	172.33	0.0000	0.0000	0.0000	0.0000;
	4065	47	15.1	23.92	-5.22	1.02	56.4	1	47	14.1	0	0	0	0	0	0	0	0	0	0	47	0.0000	0.0000	0.0000	0.0000;
	4075	0	0	89.75	-19.57	1.03	211.6	0	176.33	52.9	0	0	0	0	0	0	0	0	0	0	176.33	0.0000	0.0000	0.0000	0.0000;
	4076	52.9	24.73	89.75	-19.57	1.03	211.6	1	176.33	52.9	0	0	0	0	0	0	0	0	0	0	176.33	0.0000	0.0000	0.0000	0.0000;
	4077	52.9	22.07	89.75	-19.57	1.03	211.6	1	176.33	52.9	0	0	0	0	0	0	0	0	0	0	176.33	0.0000	0.0000	0.0000	0.0000;
	4082	243.4	33.06	123.89	-27.02	1.04	292.08	1	243.4	73.02	0	0	0	0	0	0	0	0	0	0	243.4	0.0000	0.0000	0.0000	0.0000;
	4083	243.4	34.11	123.89	-27.02	1.04	292.08	1	243.4	73.02	0	0	0	0	0	0	0	0	0	0	243.4	0.0000	0.0000	0.0000	0.0000;
	4084	243.4	52.89	123.89	-27.02	1.04	292.08	1	243.4	73.02	0	0	0	0	0	0	0	0	0	0	243.4	0.0000	0.0000	0.0000	0.0000;
	4085	254.1	58.09	179.17	-39.07	1.04	422.4	1	352	105.6	0	0	0	0	0	0	0	0	0	0	352	0.0000	0.0000	0.0000	0.0000;
	4090	0	0	0.65	-0.17	1.01	1.68	0	1.4	0.42	0	0	0	0	0	0	0	0	0	0	1.4	0.0000	0.0000	0.0000	0.0000;
	4091	23.5	3.68	10.95	-2.87	1.01	28.2	1	23.5	7.05	0	0	0	0	0	0	0	0	0	0	23.5	0.0000	0.0000	0.0000	0.0000;
	4092	0	0	3.54	-0.93	1.01	9.12	0	7.6	2.28	0	0	0	0	0	0	0	0	0	0	7.6	0.0000	0.0000	0.0000	0.0000;
	4093	28	2.31	13.05	-3.42	1.01	33.6	1	28	8.4	0	0	0	0	0	0	0	0	0	0	28	0.0000	0.0000	0.0000	0.0000;
	4094	28	7.54	13.05	-3.42	1.01	33.6	1	28	8.4	0	0	0	0	0	0	0	0	0	0	28	0.0000	0.0000	0.0000	0.0000;
	4095	28	3.47	13.05	-3.42	1.01	33.6	1	28	8.4	0	0	0	0	0	0	0	0	0	0	28	0.0000	0.0000	0.0000	0.0000;
	4096	0	0	13.05	-3.42	1.01	33.6	0	28	8.4	0	0	0	0	0	0	0	0	0	0	28	0.0000	0.0000	0.0000	0.0000;
	4097	28	3.03	13.05	-3.42	1.01	33.6	1	28	8.4	0	0	0	0	0	0	0	0	0	0	28	0.0000	0.0000	0.0000	0.0000;
	4098	0	0	13.05	-3.42	1.01	33.6	0	28	8.4	0	0	0	0	0	0	0	0	0	0	28	0.0000	0.0000	0.0000	0.0000;
	4105	135	29.66	38.34	-25.92	1.01	216	1	135	135	0	0	0	0	0	0	0	0	0	0	180	0.0000	0.0000	0.0000	0.0000;
	4115	39.54	19.86	67.09	-14.63	1.04	158.16	1	131.8	39.54	0	0	0	0	0	0	0	0	0	0	131.8	0.0000	0.0000	0.0000	0.0000;
	4116	39.54	18.49	67.09	-14.63	1.04	158.16	1	131.8	39.54	0	0	0	0	0	0	0	0	0	0	131.8	0.0000	0.0000	0.0000	0.0000;
	4133	0	0	17.1	-3.73	1	40.32	0	33.6	10.08	0	0	0	0	0	0	0	0	0	0	33.6	0.0000	0.0000	0.0000	0.0000;
	4134	10.08	-3.73	17.1	-3.73	1	40.32	1	33.6	10.08	0	0	0	0	0	0	0	0	0	0	33.6	0.0000	0.0000	0.0000	0.0000;
	4135	10.08	-3.73	17.1	-3.73	1	40.32	1	33.6	10.08	0	0	0	0	0	0	0	0	0	0	33.6	0.0000	0.0000	0.0000	0.0000;
	4136	10.08	-3.73	17.1	-3.73	1	40.32	1	33.6	10.08	0	0	0	0	0	0	0	0	0	0	33.6	0.0000	0.0000	0.0000	0.0000;
	4137	0	0	34.2	-7.46	1	80.64	0	67.2	20.16	0	0	0	0	0	0	0	0	0	0	67.2	0.0000	0.0000	0.0000	0.0000;
	4138	0	0	33.59	-7.33	1	79.2	0	66	19.8	0	0	0	0	0	0	0	0	0	0	66	0.0000	0.0000	0.0000	0.0000;
	4142	141	34.55	40.04	-27.07	1.04	225.6	1	141	141	0	0	0	0	0	0	0	0	0	0	188	0.0000	0.0000	0.0000	0.0000;
	4153	212.4	60.32	60.32	-40.78	1.04	339.84	1	212.4	212.4	0	0	0	0	0	0	0	0	0	0	283.2	0.0000	0.0000	0.0000	0.0000;
	4160	197.77	75.35	100.66	-21.95	1.03	237.32	1	197.77	59.33	0	0	0	0	0	0	0	0	0	0	197.77	0.0000	0.0000	0.0000	0.0000;
	4161	197.77	38.88	100.66	-21.95	1.03	237.32	1	197.77	59.33	0	0	0	0	0	0	0	0	0	0	197.77	0.0000	0.0000	0.0000	0.0000;
	4162	197.77	34.94	100.66	-21.95	1.03	237.32	1	197.77	59.33	0	0	0	0	0	0	0	0	0	0	197.77	0.0000	0.0000	0.0000	0.0000;
	4163	0	0	4.58	-1	1.03	10.8	0	9	2.7	0	0	0	0	0	0	0	0	0	0	9	0.0000	0.0000	0.0000	0.0000;
	4166	150.75	-28.94	42.81	-28.94	1	241.2	1	150.75	150.75	0	0	0	0	0	0	0	0	0	0	201	0.0000	0.0000	0.0000	0.0000;
	4177	112.5	-4.43	31.95	-21.6	1.04	180	1	112.5	112.5	0	0	0	0	0	0	0	0	0	0	150	0.0000	0.0000	0.0000	0.0000;
	4181	150.07	42.62	42.62	-28.81	1.04	240.12	1	150.07	150.07	0	0	0	0	0	0	0	0	0	0	200.1	0.0000	0.0000	0.0000	0.0000;
	4183	152.25	43.24	43.24	-29.23	1.03	243.6	1	152.25	152.25	0	0	0	0	0	0	0	0	0	0	203	0.0000	0.0000	0.0000	0.0000;
	4192	75	23.74	38.17	-8.33	1.02	90	1	75	22.5	0	0	0	0	0	0	0	0	0	0	75	0.0000	0.0000	0.0000	0.0000;
	4192	183.77	23.74	93.54	-20.4	1.02	220.52	1	183.77	55.13	0	0	0	0	0	0	0	0	0	0	183.77	0.0000	0.0000	0.0000	0.0000;
	4192	0	0	12.22	-2.66	1.02	28.8	0	24	7.2	0	0	0	0	0	0	0	0	0	0	24	0.0000	0.0000	0.0000	0.0000;
	4192	61	23.74	31.05	-6.77	1.02	73.2	1	61	18.3	0	0	0	0	0	0	0	0	0	0	61	0.0000	0.0000	0.0000	0.0000;
	4192	10.4	5.29	5.29	-1.15	1.02	12.48	1	10.4	3.12	0	0	0	0	0	0	0	0	0	0	10.4	0.0000	0.0000	0.0000	0.0000;
	4192	267	23.74	135.9	-29.64	1.02	320.4	1	267	80.1	0	0	0	0	0	0	0	0	0	0	267	0.0000	0.0000	0.0000	0.0000;
	4192	267	23.74	135.9	-29.64	1.02	320.4	1	267	80.1	0	0	0	0	0	0	0	0	0	0	267	0.0000	0.0000	0.0000	0.0000;
	4192	267	23.74	135.9	-29.64	1.02	320.4	1	267	80.1	0	0	0	0	0	0	0	0	0	0	267	0.0000	0.0000	0.0000	0.0000;
	4192	183.77	23.74	93.54	-20.4	1.02	220.52	1	183.77	55.13	0	0	0	0	0	0	0	0	0	0	183.77	0.0000	0.0000	0.0000	0.0000;
	4192	183.77	23.74	93.54	-20.4	1.02	220.52	1	183.77	55.13	0	0	0	0	0	0	0	0	0	0	183.77	0.0000	0.0000	0.0000	0.0000;
	5002	151.2	42.94	42.94	-29.03	1.02	241.92	1	151.2	151.2	0	0	0	0	0	0	0	0	0	0	201.6	0.0000	0.0000	0.0000	0.0000;
	5020	90	-11.18	25.56	-17.28	1	144	1	90	90	0	0	0	0	0	0	0	0	0	0	120	0.0000	0.0000	0.0000	0.0000;
	5023	0	0	2.44	-0.53	1.04	5.76	0	4.8	1.44	0	0	0	0	0	0	0	0	0	0	4.8	0.0000	0.0000	0.0000	0.0000;
	5035	0	0	2.14	-0.47	1.02	5.04	0	4.2	1.26	0	0	0	0	0	0	0	0	0	0	4.2	0.0000	0.0000	0.0000	0.0000;
	5036	0	0	3.26	-0.71	1.02	7.68	0	6.4	1.92	0	0	0	0	0	0	0	0	0	0	6.4	0.0000	0.0000	0.0000	0.0000;
	5037	308.47	68.52	157.01	-34.24	1.02	370.16	1	308.47	92.54	0	0	0	0	0	0	0	0	0	0	308.47	0.0000	0.0000	0.0000	0.0000;
	5038	308.47	67.11	157.01	-34.24	1.02	370.16	1	308.47	92.54	0	0	0	0	0	0	0	0	0	0	308.47	0.0000	0.0000	0.0000	0.0000;
	5039	308.47	145.31	157.01	-34.24	1.02	370.16	1	308.47	92.54	0	0	0	0	0	0	0	0	0	0	308.47	0.0000	0.0000	0.0000	0.0000;
	5040	308.47	51.12	157.01	-34.24	1.02	370.16	1	308.47	92.54	0	0	0	0	0	0	0	0	0	0	308.47	0.0000	0.0000	0.0000	0.0000;
	5041	308.47	70.62	157.01	-34.24	1.02	370.16	1	308.47	92.54	0	0	0	0	0	0	0	0	0	0	308.47	0.0000	0.0000	0.0000	0.0000;
	5042	308.47	63.62	157.01	-34.24	1.02	370.16	1	308.47	92.54	0	0	0	0	0	0	0	0	0	0	308.47	0.0000	0.0000	0.0000	0.0000;
	5051	84.7	43.11	43.11	-9.4	1.02	101.64	1	84.7	25.41	0	0	0	0	0	0	0	0	0	0	84.7	0.0000	0.0000	0.0000	0.0000;
	5057	0	0	161.53	-35.23	1	380.82	0	317.35	95.2	0	0	0	0	0	0	0	0	0	0	317.35	0.0000	0.0000	0.0000	0.0000;
	5058	317.35	-8.79	161.53	-35.23	1	380.82	1	317.35	95.2	0	0	0	0	0	0	0	0	0	0	317.35	0.0000	0.0000	0.0000	0.0000;
	5065	10.6	5.4	5.4	-1.18	1.03	12.72	1	10.6	3.18	0	0	0	0	0	0	0	0	0	0	10.6	0.0000	0.0000	0.0000	0.0000;
	5066	0	0	0.92	-0.2	1.03	2.16	0	1.8	0.54	0	0	0	0	0	0	0	0	0	0	1.8	0.0000	0.0000	0.0000	0.0000;
	5067	376.91	189.1	223.08	-48.65	1.03	525.92	1	438.27	131.48	0	0	0	0	0	0	0	0	0	0	438.27	0.0000	0.0000	0.0000	0.0000;
	5068	376.91	178.84	223.08	-48.65	1.03	525.92	1	438.27	131.48	0	0	0	0	0	0	0	0	0	0	438.27	0.0000	0.0000	0.0000	0.0000;
	5069	376.91	167.86	223.08	-48.65	1.03	525.92	1	438.27	131.48	0	0	0	0	0	0	0	0	0	0	438.27	0.0000	0.0000	0.0000	0.0000;
	5089	0	0	16.05	-2.05	1.01	50.16	0	41.8	12.54	0	0	0	0	0	0	0	0	0	0	41.8	0.0000	0.0000	0.0000	0.0000;
	5106	0	0	5.03	-1.32	1.04	12.96	0	10.8	3.24	0	0	0	0	0	0	0	0	0	0	10.8	0.0000	0.0000	0.0000	0.0000;
...
];

%% branch data
%	fbus	tbus	r	x	b	rateA	rateB	rateC	ratio	angle	status	angmin	angmax	Pf	Qf	Pt	Qt	mu_Sf	mu_St	mu_angmin	mu_angmax
mpc.branch = [
	1001	1064	0.00524	0.0358	0.00609	221	0	0	0	0	1	0	0	67.4000	9.7000	-67.1500	-8.5700	0.0000	0.0000	0.0000	0.0000;
	1001	1064	0.00524	0.0358	0.00609	221	0	0	0	0	1	0	0	67.4000	9.7000	-67.1500	-8.5700	0.0000	0.0000	0.0000	0.0000;
	1001	1071	0.00435	0.02808	0.00536	221	0	0	0	0	1	0	0	-77.7900	-12.6400	78.0700	13.9200	0.0000	0.0000	0.0000	0.0000;
	1001	1071	0.00435	0.02808	0.00536	221	0	0	0	0	1	0	0	-77.7900	-12.6400	78.0700	13.9200	0.0000	0.0000	0.0000	0.0000;
	1002	1007	0.07776	0.46693	0.06336	98	0	0	0	0	1	0	0	1.0700	-4.4700	-1.0600	-2.3900	0.0000	0.0000	0.0000	0.0000;
	1010	1002	0.05552	0.1357	0.01777	98	0	0	0	0	1	0	0	16.6200	-1.6900	-16.4800	0.1000	0.0000	0.0000	0.0000	0.0000;
	1004	1003	0.0045	0.11582	0	250	0	0	1	0	1	0	0	-28.8400	4.5300	28.8800	-3.5700	0.0000	0.0000	0.0000	0.0000;
	1022	1003	0.00485	0.02012	0.00341	221	0	0	0	0	1	0	0	75.2800	-4.1400	-75.0100	4.9100	0.0000	0.0000	0.0000	0.0000;
	1055	1003	0.01574	0.03782	0.00513	98	0	0	0	0	1	0	0	-45.8100	1.6000	46.1400	-1.3300	0.0000	0.0000	0.0000	0.0000;
	1004	3133	0.0042	0.03	0.055	523	0	0	0	0	1	0	0	187.0900	-34.9100	-185.6200	39.7300	0.0000	0.0000	0.0000	0.0000;
	1006	1005	0.00602	0.14707	0	42	0	0	1	0	1	0	0	25.7300	-4.9400	-25.6800	5.9400	0.0000	0.0000	0.0000	0.0000;
	1025	1005	0.01842	0.0821	0.01204	149	0	0	0	0	1	0	0	44.0100	3.7300	-43.6700	-3.4400	0.0000	0.0000	0.0000	0.0000;
	1005	1061	0.00599	0.02484	0.00422	221	0	0	0	0	1	0	0	78.1100	-26.3400	-77.7100	27.5500	0.0000	0.0000	0.0000	0.0000;
	1067	1005	0.01711	0.04181	0.00548	98	0	0	0	0	1	0	0	8.8700	-24.1200	-8.7600	23.8300	0.0000	0.0000	0.0000	0.0000;
	1007	1015	0.06224	0.37375	0.05072	98	0	0	0	0	1	0	0	-1.1500	-3.7600	1.1500	-1.7700	0.0000	0.0000	0.0000	0.0000;
	1031	1007	0.04803	0.27434	0.04123	98	0	0	0	0	1	0	0	4.8200	-8.4300	-4.7900	4.1700	0.0000	0.0000	0.0000	0.0000;
	1009	1008	0.00455	0.09471	0	120	0	0	1	0	1	0	0	61.8700	-11.8800	-61.7000	15.4400	0.0000	0.0000	0.0000	0.0000;
	1008	1032	0.04501	0.11002	0.01441	98	0	0	0	0	1	0	0	59.6200	-5.6100	-58.1200	7.7500	0.0000	0.0000	0.0000	0.0000;
	1008	1069	0.0083	0.03628	0.00553	149	0	0	0	0	1	0	0	2.0800	-9.8300	-2.0700	9.2600	0.0000	0.0000	0.0000	0.0000;
	1011	1010	0.00721	0.3246	0	46	0	0	1	0	1	0	0	7.5000	0.0000	-7.5000	0.1700	0.0000	0.0000	0.0000	0.0000;
	1010	1015	0.04703	0.28243	0.03833	98	0	0	0	0	1	0	0	8.7000	-3.6500	-8.6600	-0.3500	0.0000	0.0000	0.0000	0.0000;
	1010	1030	0.0616	0.3699	0.0502	98	0	0	0	0	1	0	0	-17.8200	5.1800	18.0300	-9.3100	0.0000	0.0000	0.0000	0.0000;
	1012	1087	0.04934	0.20469	0.03473	149	0	0	0	0	1	0	0	-69.3400	17.7900	71.6500	-12.0900	0.0000	0.0000	0.0000	0.0000;
	3051	1012	0.0571	0.24977	0.03804	149	0	0	0	0	1	0	0	-64.0700	13.8800	66.3600	-8.0900	0.0000	0.0000	0.0000	0.0000;
	1013	1031	0.04509	0.27078	0.03675	98	0	0	0	0	1	0	0	14.1800	-8.9900	-14.0700	5.8100	0.0000	0.0000	0.0000	0.0000;
	1047	1013	0.00947	0.06117	0.01167	221	0	0	0	0	1	0	0	59.3200	-11.3700	-58.9800	12.3400	0.0000	0.0000	0.0000	0.0000;
	1086	1013	0.079	0.19311	0.02529	98	0	0	0	0	1	0	0	-15.3100	9.6600	15.5800	-11.6300	0.0000	0.0000	0.0000	0.0000;
	1014	1047	0.03566	0.14794	0.0251	149	0	0	0	0	1	0	0	19.6000	1.2100	-19.4700	-3.2600	0.0000	0.0000	0.0000	0.0000;
	1014	1083	0.04105	0.18293	0.02682	149	0	0	0	0	1	0	0	-21.8200	-1.8400	22.0100	-0.1700	0.0000	0.0000	0.0000	0.0000;
	1016	1034	0.01828	0.10976	0.01489	98	0	0	0	0	1	0	0	-14.4400	13.1800	14.5100	-14.2800	0.0000	0.0000	0.0000	0.0000;
	1068	1016	0.02773	0.15837	0.0238	98	0	0	0	0	1	0	0	-11.4200	-18.8600	11.5500	17.1800	0.0000	0.0000	0.0000	0.0000;
	1018	1017	0.03227	0.07887	0.01033	98	0	0	0	0	1	0	0	26.9500	-2.2400	-26.7100	1.8000	0.0000	0.0000	0.0000	0.0000;
	1017	1029	0.03244	0.14188	0.02161	149	0	0	0	0	1	0	0	37.5300	-26.4100	-36.8500	27.2300	0.0000	0.0000	0.0000	0.0000;
	1037	1017	0.00752	0.03352	0.00491	221	0	0	0	0	1	0	0	-59.6400	-8.9700	59.9200	9.7600	0.0000	0.0000	0.0000	0.0000;
	1047	1017	0.036	0.156	0.024	150	0	0	0	0	1	0	0	92.0600	0.8300	-89.0900	9.6500	0.0000	0.0000	0.0000	0.0000;
	1024	1018	0.01094	0.06572	0.00892	98	0	0	0	0	1	0	0	27.1000	-2.6100	-27.0200	2.2200	0.0000	0.0000	0.0000	0.0000;
	1019	1040	0.04978	0.20651	0.03504	149	0	0	0	0	1	0	0	-14.6100	6.2800	14.7500	-9.2100	0.0000	0.0000	0.0000	0.0000;
	1019	1045	0.01522	0.0372	0.00487	221	0	0	0	0	1	0	0	104.7600	14.9700	-103.0700	-11.3300	0.0000	0.0000	0.0000	0.0000;
	1019	1071	0.0044	0.028	0.0054	225	0	0	0	0	1	0	0	-42.8900	53.3400	43.1000	-52.5700	0.0000	0.0000	0.0000	0.0000;
	1071	1019	0.0044	0.028	0.0054	225	0	0	0	0	1	0	0	43.1000	-52.5700	-42.8900	53.3400	0.0000	0.0000	0.0000	0.0000;
	1019	1084	0.03	0.16	0.025	220	0	0	0	0	1	0	0	-66.1400	-1.0800	67.4400	5.4300	0.0000	0.0000	0.0000	0.0000;
	1021	1020	0.00327	0.07812	0	250	0	0	1	0	1	0	0	149.6300	-28.7300	-148.8700	46.7600	0.0000	0.0000	0.0000	0.0000;
	1025	1020	0.00828	0.03434	0.00583	149	0	0	0	0	1	0	0	48.7700	-26.2300	-48.5300	26.6200	0.0000	0.0000	0.0000	0.0000;
	1084	1020	0.01056	0.06337	0.0086	221	0	0	0	0	1	0	0	-32.8800	9.3800	33.0000	-9.5800	0.0000	0.0000	0.0000	0.0000;
	1020	3059	0.0189	0.06	0.006	300	0	0	0	0	1	0	0	66.3400	4.6700	-65.5500	-2.7800	0.0000	0.0000	0.0000	0.0000;
	1020	3130	0.00996	0.06938	0.01134	221	0	0	0	0	1	0	0	98.0600	12.4900	-97.1400	-7.2300	0.0000	0.0000	0.0000	0.0000;
	1023	1022	0.00535	0.11733	0	250	0	0	1	0	1	0	0	135.0000	0.8000	-134.0400	20.1600	0.0000	0.0000	0.0000	0.0000;
	1022	1028	0.01433	0.09253	0.01765	221	0	0	0	0	1	0	0	29.3800	-8.0100	-29.2500	7.0100	0.0000	0.0000	0.0000	0.0000;
	1022	1028	0.01433	0.09253	0.01765	221	0	0	0	0	1	0	0	29.3800	-8.0100	-29.2500	7.0100	0.0000	0.0000	0.0000	0.0000;
	1024	1090	0.01414	0.06303	0.00924	149	0	0	0	0	1	0	0	-90.1400	-15.2500	91.3300	19.6100	0.0000	0.0000	0.0000	0.0000;
	1026	1025	0.0042	0.18046	0	104	0	0	1	0	1	0	0	93.1500	-6.7600	-92.7800	22.5000	0.0000	0.0000	0.0000	0.0000;
	1027	1045	0.02505	0.10957	0.01669	221	0	0	0	0	1	0	0	-14.6800	33.9300	15.0300	-34.0900	0.0000	0.0000	0.0000	0.0000;
	1056	1027	0.03121	0.0763	0.00999	250	0	0	0	0	1	0	0	88.8600	-10.4000	-86.5300	15.0400	0.0000	0.0000	0.0000	0.0000;
	1028	3109	0.00428	0.01875	0.00286	250	0	0	0	0	1	0	0	48.4900	-16.8600	-48.3800	17.0400	0.0000	0.0000	0.0000	0.0000;
	1029	1056	0.02054	0.11733	0.01763	221	0	0	0	0	1	0	0	-46.3300	-9.6800	46.7800	10.3700	0.0000	0.0000	0.0000	0.0000;
	1030	1038	0.07404	0.42285	0.06354	98	0	0	0	0	1	0	0	-24.9700	2.2900	25.4300	-6.4500	0.0000	0.0000	0.0000	0.0000;
	1083	1030	0.06537	0.37334	0.0561	98	0	0	0	0	1	0	0	17.8900	-4.9000	-17.6900	0.0500	0.0000	0.0000	0.0000	0.0000;
	1033	1032	0.00283	0.06758	0	170	0	0	1	0	1	0	0	-118.2200	43.0500	118.6400	-33.1700	0.0000	0.0000	0.0000	0.0000;
	1032	1036	0.01956	0.11746	0.01594	98	0	0	0	0	1	0	0	6.0800	8.4700	-6.0500	-9.9600	0.0000	0.0000	0.0000	0.0000;
	1038	1032	0.045	0.11	0.015	155	0	0	0	0	1	0	0	68.6500	-13.4900	-66.5900	16.9500	0.0000	0.0000	0.0000	0.0000;
	1033	1081	0.003	0.031	0.059	548	0	0	0	0	1	0	0	135.3500	-35.7100	-134.8100	34.8300	0.0000	0.0000	0.0000	0.0000;
	1033	3050	0.0139	0.136	0.262	647	0	0	0	0	1	0	0	191.3800	-25.7400	-186.6500	43.0400	0.0000	0.0000	0.0000	0.0000;
	1035	1034	0.00438	0.08496	0	88	0	0	1	0	1	0	0	67.5000	-9.9400	-67.3000	13.8900	0.0000	0.0000	0.0000	0.0000;
	1067	1034	0.00795	0.04771	0.00647	98	0	0	0	0	1	0	0	-52.5700	0.2700	52.7900	0.3900	0.0000	0.0000	0.0000	0.0000;
	1088	1036	0.02065	0.11793	0.01772	98	0	0	0	0	1	0	0	7.5700	-7.7700	-7.5400	6.1100	0.0000	0.0000	0.0000	0.0000;
	1037	1071	0.00669	0.04319	0.00824	300	0	0	0	0	1	0	0	-42.6000	-20.0000	42.7500	20.1800	0.0000	0.0000	0.0000	0.0000;
	1039	1038	0.00201	0.08591	0	200	0	0	1	0	1	0	0	110.6300	-21.2400	-110.3800	31.8900	0.0000	0.0000	0.0000	0.0000;
	1082	1038	0.01115	0.04969	0.00729	149	0	0	0	0	1	0	0	64.6200	-6.1200	-64.1800	7.2900	0.0000	0.0000	0.0000	0.0000;
	1083	1038	0.01	0.05	0.007	221	0	0	0	0	1	0	0	-79.8400	21.7100	80.4900	-19.2400	0.0000	0.0000	0.0000	0.0000;
	1040	1090	0.02991	0.13329	0.01955	149	0	0	0	0	1	0	0	-59.1100	-3.3500	60.1600	6.0700	0.0000	0.0000	0.0000	0.0000;
	1042	1041	0.00419	0.11123	0	97	0	0	1	0	1	0	0	0.0000	0.0000	0.0000	0.0000	0.0000	0.0000	0.0000	0.0000;
	1043	1041	0.003	0.12844	0	65	0	0	1	0	1	0	0	44.1000	-4.5200	-44.0400	7.0400	0.0000	0.0000	0.0000	0.0000;
	1065	1041	0.00386	0.02203	0.00331	98	0	0	0	0	1	0	0	13.9500	12.0200	-13.9400	-12.2800	0.0000	0.0000	0.0000	0.0000;
	1041	1067	0.00393	0.01722	0.00262	149	0	0	0	0	1	0	0	57.9800	5.2300	-57.8500	-4.9200	0.0000	0.0000	0.0000	0.0000;
	1044	3019	0.03857	0.17192	0.02521	149	0	0	0	0	1	0	0	40.9500	-17.1600	-40.2300	17.7200	0.0000	0.0000	0.0000	0.0000;
	3130	1044	0.02731	0.19029	0.03111	221	0	0	0	0	1	0	0	56.5100	-10.1200	-55.6300	13.0000	0.0000	0.0000	0.0000	0.0000;
	1045	1064	0.00545	0.03794	0.0062	221	0	0	0	0	1	0	0	-10.5200	17.4900	10.5500	-17.9200	0.0000	0.0000	0.0000	0.0000;
	1087	1046	0.03262	0.14269	0.02173	149	0	0	0	0	1	0	0	80.5300	-8.4200	-78.6200	14.3500	0.0000	0.0000	0.0000	0.0000;
	1046	3009	0.05654	0.23454	0.0398	149	0	0	0	0	1	0	0	67.5400	-4.2900	-65.1900	9.7300	0.0000	0.0000	0.0000	0.0000;
	1048	1047	0.00335	0.06576	0	140	0	0	1	0	1	0	0	0.0000	0.0000	0.0000	0.0000	0.0000	0.0000	0.0000	0.0000;
	1049	1047	0.00276	0.11783	0	139	0	0	1	0	1	0	0	0.0000	0.0000	0.0000	0.0000	0.0000	0.0000	0.0000	0.0000;
	1050	1047	0.00313	0.09941	0	124	0	0	1	0	1	0	0	89.4000	-9.9200	-89.1500	17.9200	0.0000	0.0000	0.0000	0.0000;
	1051	1047	0.0056	0.1283	0	117	0	0	1	0	1	0	0	89.4000	-9.4000	-88.9500	19.7700	0.0000	0.0000	0.0000	0.0000;
	1052	1047	0.00368	0.0826	0	110	0	0	1	0	1	0	0	89.4000	-9.9200	-89.1100	16.5200	0.0000	0.0000	0.0000	0.0000;
	1053	1047	0.0023	0.08808	0	250	0	0	1	0	1	0	0	-78.8000	35.3600	78.9600	-29.2800	0.0000	0.0000	0.0000	0.0000;
	1047	1085	0.00947	0.06117	0.01167	221	0	0	0	0	1	0	0	56.3400	-11.1200	-56.0300	11.8800	0.0000	0.0000	0.0000	0.0000;
	1053	1081	0.003	0.03	0.06	548	0	0	0	0	1	0	0	78.8000	-35.3600	-78.6000	30.8400	0.0000	0.0000	0.0000	0.0000;
	1054	1056	0.02202	0.09633	0.01467	149	0	0	0	0	1	0	0	-14.7900	-16.5900	14.8900	15.4900	0.0000	0.0000	0.0000	0.0000;
	1089	1054	0.08737	0.21357	0.02796	98	0	0	0	0	1	0	0	0.3600	-14.7600	-0.2000	12.3500	0.0000	0.0000	0.0000	0.0000;
	1055	1089	0.04982	0.12179	0.01595	98	0	0	0	0	1	0	0	41.8300	-2.7200	-40.9700	3.2600	0.0000	0.0000	0.0000	0.0000;
	1057	1056	0.00315	0.1312	0	101	0	0	1	0	1	0	0	0.0000	0.0000	0.0000	0.0000	0.0000	0.0000	0.0000	0.0000;
	1056	1061	0.02267	0.12946	0.01945	150	0	0	0	0	1	0	0	-60.2800	29.2000	61.2400	-25.7400	0.0000	0.0000	0.0000	0.0000;
	1056	1065	0.02269	0.12962	0.01948	250	0	0	0	0	1	0	0	-90.2400	40.9900	92.3400	-31.0300	0.0000	0.0000	0.0000	0.0000;
	1059	1058	0.02655	0.46187	0	33	0	0	1	0	1	0	0	0.0000	0.0000	0.0000	0.0000	0.0000	0.0000	0.0000	0.0000;
	1060	1058	0.00894	0.38854	0	27	0	0	1	0	1	0	0	0.0000	0.0000	0.0000	0.0000	0.0000	0.0000	0.0000	0.0000;
	1069	1058	0.0074	0.05155	0.00843	221	0	0	0	0	1	0	0	84.7100	-17.8400	-84.2000	20.4900	0.0000	0.0000	0.0000	0.0000;
	1069	1058	0.0074	0.05155	0.00843	221	0	0	0	0	1	0	0	84.7100	-17.8400	-84.2000	20.4900	0.0000	0.0000	0.0000	0.0000;
	1058	1087	0.01573	0.10956	0.01791	221	0	0	0	0	1	0	0	77.4800	-22.4000	-76.5400	26.9200	0.0000	0.0000	0.0000	0.0000;
	1058	1087	0.01573	0.10956	0.01791	221	0	0	0	0	1	0	0	77.4800	-22.4000	-76.5400	26.9200	0.0000	0.0000	0.0000	0.0000;
	1062	1061	0.0163	0.31787	0	29	0	0	1	0	1	0	0	0.0000	0.0000	0.0000	0.0000	0.0000	0.0000	0.0000	0.0000;
	1063	1061	0.00567	0.10409	0	200	0	0	1	0	1	0	0	0.0000	0.0000	0.0000	0.0000	0.0000	0.0000	0.0000	0.0000;
	1061	3042	0.054	0.18	0.028	221	0	0	0	0	1	0	0	16.4700	-1.8100	-16.3300	-0.5700	0.0000	0.0000	0.0000	0.0000;
	1066	1065	0.00508	0.12315	0	200	0	0	1	0	1	0	0	106.8700	-4.9100	-106.2900	19.0100	0.0000	0.0000	0.0000	0.0000;
	1088	1068	0.02962	0.16921	0.02543	98	0	0	0	0	1	0	0	48.6800	-0.5300	-47.9800	2.0300	0.0000	0.0000	0.0000	0.0000;
	1070	1069	0.00297	0.07	0	220	0	0	1	0	1	0	0	120.3700	-0.8400	-119.9800	10.2200	0.0000	0.0000	0.0000	0.0000;
	1082	1069	0.02137	0.0952	0.01396	149	0	0	0	0	1	0	0	47.8800	-15.4800	-47.3800	16.2000	0.0000	0.0000	0.0000	0.0000;
	1072	1071	0.00529	0.08551	0	240	0	0	1	0	1	0	0	192.1300	25.2100	-190.1800	6.2600	0.0000	0.0000	0.0000	0.0000;
	1073	1071	0.00499	0.14254	0	240	0	0	1	0	1	0	0	192.1300	32.6200	-190.2700	20.4500	0.0000	0.0000	0.0000	0.0000;
	1074	1071	0.00575	0.12453	0	240	0	0	1	0	1	0	0	192.1300	28.8400	-190.0000	17.2300	0.0000	0.0000	0.0000	0.0000;
	1075	1071	0.00373	0.09967	0	240	0	0	1	0	1	0	0	192.1300	29.5700	-190.7500	7.3500	0.0000	0.0000	0.0000	0.0000;
	1076	1071	0.00141	0.04937	0	125	0	0	1	0	1	0	0	0.0000	0.0000	0.0000	0.0000	0.0000	0.0000	0.0000	0.0000;
	1077	1071	0.00641	0.12047	0	121	0	0	1	0	1	0	0	0.0000	0.0000	0.0000	0.0000	0.0000	0.0000	0.0000	0.0000;
	1078	1071	0.00533	0.19087	0	137	0	0	1	0	1	0	0	95.5000	15.6400	-95.0100	1.8800	0.0000	0.0000	0.0000	0.0000;
	1079	1071	0.00013	0.046	0	2000	0	0	1	0	1	0	0	-663.2100	157.6600	663.8200	49.5500	0.0000	0.0000	0.0000	0.0000;
	1080	1071	0.01206	0.20208	0	136	0	0	1	0	1	0	0	95.5000	12.5400	-94.4000	5.8400	0.0000	0.0000	0.0000	0.0000;
	1081	1071	0.00167	0.0665	0	350	0	0	1	0	1	0	0	89.9900	86.8500	-89.7500	-77.3600	0.0000	0.0000	0.0000	0.0000;
	3048	1079	0.0013	0.015	1.02	2300	0	0	0	0	1	0	0	-377.5300	-0.1700	379.3600	-84.1300	0.0000	0.0000	0.0000	0.0000;
	3048	1079	0.0013	0.015	1.02	2300	0	0	0	0	1	0	0	-377.5300	-0.1700	379.3600	-84.1300	0.0000	0.0000	0.0000	0.0000;
	1081	3058	0.0091	0.089	0.171	548	0	0	0	0	1	0	0	123.4200	0.9000	-122.1500	-6.9300	0.0000	0.0000	0.0000	0.0000;
	1084	3130	0.02049	0.09131	0.01339	221	0	0	0	0	1	0	0	52.0700	9.7900	-51.5200	-8.7600	0.0000	0.0000	0.0000	0.0000;
	1085	1086	0.03392	0.14838	0.0226	149	0	0	0	0	1	0	0	24.6000	-11.8400	-24.3600	10.5300	0.0000	0.0000	0.0000	0.0000;
	1090	1085	0.02018	0.13786	0.02346	221	0	0	0	0	1	0	0	-10.1200	3.8100	10.1400	-6.0700	0.0000	0.0000	0.0000	0.0000;
	2029	1091	0.0389	0.17144	0.0798	187	0	0	0	0	1	0	0	-19.3600	-2.4300	19.5000	-5.3000	0.0000	0.0000	0.0000	0.0000;
	1091	2048	0.02193	0.09667	0.045	187	0	0	0	0	1	0	0	11.4500	-2.6200	-11.4200	-1.9800	0.0000	0.0000	0.0000	0.0000;
	2098	1091	0.00554	0.02443	0.01137	187	0	0	0	0	1	0	0	42.6700	-5.4000	-42.5700	4.6300	0.0000	0.0000	0.0000	0.0000;
	2022	2001	0.00839	0.03697	0.01721	187	0	0	0	0	1	0	0	65.8100	7.3300	-65.4500	-7.4900	0.0000	0.0000	0.0000	0.0000;
	2027	2001	0.00955	0.04062	0.02032	187	0	0	0	0	1	0	0	-17.0600	4.2900	17.1000	-6.2100	0.0000	0.0000	0.0000	0.0000;
	2003	2002	0.0003	0.01986	0	981	0	0	1	0	1	0	0	-201.7900	0.2600	201.9100	7.6400	0.0000	0.0000	0.0000	0.0000;
	2004	2002	0.00022	0.01466	0	635	0	0	1	0	1	0	0	0.0000	0.0000	0.0000	0.0000	0.0000	0.0000	0.0000	0.0000;
	2005	2002	0.00033	0.01714	0	645	0	0	1	0	1	0	0	0.0000	0.0000	0.0000	0.0000	0.0000	0.0000	0.0000	0.0000;
	2006	2002	0.00036	0.02679	0	636	0	0	1	0	1	0	0	0.0000	0.0000	0.0000	0.0000	0.0000	0.0000	0.0000	0.0000;
	2021	2002	0.00097	0.01175	0.78032	2295	0	0	0	0	1	0	0	712.0800	-47.9300	-707.3100	25.4300	0.0000	0.0000	0.0000	0.0000;
	2002	2101	0.00031	0.0037	0.24573	2020	0	0	0	0	1	0	0	505.4000	-33.0700	-504.6300	17.1000	0.0000	0.0000	0.0000	0.0000;
	2038	2003	0.00353	0.02067	0.01032	251	0	0	0	0	1	0	0	-41.7800	-7.8300	41.8400	7.1400	0.0000	0.0000	0.0000	0.0000;
	2003	2047	0.0013	0.0099	0.0052	310	0	0	0	0	1	0	0	159.9500	-7.4000	-159.6200	9.3500	0.0000	0.0000	0.0000	0.0000;
	2007	2114	0.00888	0.05207	0.026	251	0	0	0	0	1	0	0	-75.0200	-3.7600	75.5200	4.0200	0.0000	0.0000	0.0000	0.0000;
	2007	2122	0.00861	0.03661	0.01831	187	0	0	0	0	1	0	0	65.4800	1.0600	-65.1100	-1.3400	0.0000	0.0000	0.0000	0.0000;
	2014	2008	0.02253	0.09931	0.04623	187	0	0	0	0	1	0	0	-9.3200	-1.7900	9.3400	-2.9000	0.0000	0.0000	0.0000	0.0000;
	2008	2052	0.01877	0.08271	0.0385	187	0	0	0	0	1	0	0	-17.4000	0.6100	17.4600	-4.3500	0.0000	0.0000	0.0000	0.0000;
	2009	2049	0.01224	0.07176	0.03583	251	0	0	0	0	1	0	0	-105.9300	25.6700	107.3300	-21.1700	0.0000	0.0000	0.0000	0.0000;
	2009	2082	0.00735	0.03126	0.01563	187	0	0	0	0	1	0	0	-7.9300	60.4200	8.2000	-60.8900	0.0000	0.0000	0.0000	0.0000;
	2109	2009	0.00725	0.03084	0.01542	250	0	0	0	0	1	0	0	-74.2800	-27.8900	74.7200	28.2000	0.0000	0.0000	0.0000	0.0000;
	2061	2010	0.02439	0.10748	0.05003	187	0	0	0	0	1	0	0	-18.7800	4.6700	18.8800	-9.4600	0.0000	0.0000	0.0000	0.0000;
	2010	2079	0.02061	0.09083	0.04228	187	0	0	0	0	1	0	0	-35.0200	2.9600	35.2600	-6.2600	0.0000	0.0000	0.0000	0.0000;
	2010	2091	0.02461	0.10467	0.05235	187	0	0	0	0	1	0	0	-40.6700	11.1300	41.1100	-14.6700	0.0000	0.0000	0.0000	0.0000;
	2012	2011	0.00044	0.03546	0	461	0	0	1	0	1	0	0	117.9200	-32.9200	-117.8600	37.9600	0.0000	0.0000	0.0000	0.0000;
	2013	2011	0.00043	0.02897	0	412	0	0	1	0	1	0	0	150.4500	-28.8900	-150.3500	35.2900	0.0000	0.0000	0.0000	0.0000;
	2127	2011	0.00108	0.01307	0.86827	2020	0	0	0	0	1	0	0	-267.4900	-11.7700	268.2100	-73.2500	0.0000	0.0000	0.0000	0.0000;
	2012	2041	0.01245	0.05297	0.02649	187	0	0	0	0	1	0	0	-71.9600	15.1900	72.6000	-15.2500	0.0000	0.0000	0.0000	0.0000;
	2012	2052	0.02008	0.08851	0.0412	187	0	0	0	0	1	0	0	42.6400	-0.0900	-42.2900	-2.6900	0.0000	0.0000	0.0000	0.0000;
	2093	2012	0.01029	0.04536	0.02111	187	0	0	0	0	1	0	0	-28.5200	6.3900	28.6100	-8.2400	0.0000	0.0000	0.0000	0.0000;
	2012	2123	0.00995	0.0423	0.02115	251	0	0	0	0	1	0	0	-117.2100	26.0500	118.5800	-22.4900	0.0000	0.0000	0.0000	0.0000;
	2014	2029	0.01859	0.07908	0.03955	187	0	0	0	0	1	0	0	-16.1100	-5.4100	16.1600	1.5300	0.0000	0.0000	0.0000	0.0000;
	2015	2037	0.00862	0.03799	0.01769	187	0	0	0	0	1	0	0	11.8200	-33.7000	-11.7200	32.3200	0.0000	0.0000	0.0000	0.0000;
	5014	2015	0.00961	0.04237	0.01972	187	0	0	0	0	1	0	0	16.6400	-33.7800	-16.5100	32.3700	0.0000	0.0000	0.0000	0.0000;
	2043	2016	0.00593	0.02614	0.01217	187	0	0	0	0	1	0	0	21.6700	-10.7900	-21.6400	9.7000	0.0000	0.0000	0.0000	0.0000;
	2069	2016	0.0084	0.03705	0.01725	187	0	0	0	0	1	0	0	47.8800	28.6500	-47.6300	-29.3300	0.0000	0.0000	0.0000	0.0000;
	2018	2017	0.00048	0.05045	0	271	0	0	1	0	1	0	0	28.4300	-4.2800	-28.4300	4.6700	0.0000	0.0000	0.0000	0.0000;
	2019	2017	0.0002	0.01182	0	454	0	0	1	0	1	0	0	0.0000	0.0000	0.0000	0.0000	0.0000	0.0000	0.0000	0.0000;
	2017	2096	0.00253	0.03068	2.03836	2020	0	0	0	0	1	0	0	-268.7900	-55.1000	270.5800	-137.8100	0.0000	0.0000	0.0000	0.0000;
	2017	2127	0.00089	0.01081	0.71846	2020	0	0	0	0	1	0	0	297.2200	-161.3900	-296.3500	95.0600	0.0000	0.0000	0.0000	0.0000;
	2018	2093	0.01163	0.05125	0.02386	187	0	0	0	0	1	0	0	-28.4300	4.2800	28.5200	-6.3900	0.0000	0.0000	0.0000	0.0000;
	2045	2020	0.00097	0.00548	0.00295	310	0	0	0	0	1	0	0	-169.7200	18.9700	170.0000	-17.6500	0.0000	0.0000	0.0000	0.0000;
	2055	2020	0.00102	0.00744	0.00422	409	0	0	0	0	1	0	0	218.4700	-0.9100	-217.9800	4.0600	0.0000	0.0000	0.0000	0.0000;
	2022	2021	0.00034	0.01888	0	867	0	0	1	0	1	0	0	-181.7000	-13.7900	181.8100	19.9100	0.0000	0.0000	0.0000	0.0000;
	2023	2021	0.00054	0.03406	0	319	0	0	1	0	1	0	0	83.3300	13.1700	-83.2900	-10.8400	0.0000	0.0000	0.0000	0.0000;
	2024	2021	0.00036	0.02425	0	391	0	0	1	0	1	0	0	166.6700	19.5000	-166.5700	-12.9400	0.0000	0.0000	0.0000	0.0000;
	2113	2021	0.0001	0.00124	0.08207	2020	0	0	0	0	1	0	0	644.4200	-55.2400	-644.0200	51.8000	0.0000	0.0000	0.0000	0.0000;
	2022	2040	0.02207	0.09391	0.04697	187	0	0	0	0	1	0	0	12.6500	-2.6300	-12.6200	-2.0200	0.0000	0.0000	0.0000	0.0000;
	2064	2022	0.00558	0.03156	0.01697	251	0	0	0	0	1	0	0	-91.2100	-4.9300	91.6700	5.8100	0.0000	0.0000	0.0000	0.0000;
	2025	2055	0.0023	0.01016	0.00473	187	0	0	0	0	1	0	0	-30.5400	-25.4800	30.5800	25.1700	0.0000	0.0000	0.0000	0.0000;
	2067	2025	0.00317	0.014	0.00651	187	0	0	0	0	1	0	0	9.0800	-14.8500	-9.0700	14.2500	0.0000	0.0000	0.0000	0.0000;
	2058	2026	0.02475	0.10526	0.05264	187	0	0	0	0	1	0	0	64.4900	-13.7900	-63.4900	12.4900	0.0000	0.0000	0.0000	0.0000;
	2128	2026	0.01207	0.05318	0.02475	187	0	0	0	0	1	0	0	-44.6600	16.2900	44.9200	-17.7500	0.0000	0.0000	0.0000	0.0000;
	2027	2090	0.01692	0.07455	0.0347	187	0	0	0	0	1	0	0	13.5100	-5.3000	-13.4800	1.9400	0.0000	0.0000	0.0000	0.0000;
...